
---------- Begin Simulation Statistics ----------
final_tick                               47146641226836648                       # Number of ticks from beginning of simulation (restored from checkpoints and never reset)
host_inst_rate                               32402710                       # Simulator instruction rate (inst/s)
host_mem_usage                                1626308                       # Number of bytes of host memory used
host_op_rate                                 39538014                       # Simulator op (including micro ops) rate (op/s)
host_seconds                                     1.19                       # Real time elapsed on the host
host_tick_rate                              451066259                       # Simulator tick rate (ticks/s)
sim_freq                                 1000000000000                       # Frequency of simulated ticks
sim_insts                                    38613514                       # Number of instructions simulated
sim_ops                                      47118935                       # Number of ops (including micro ops) simulated
sim_seconds                                  0.000538                       # Number of seconds simulated
sim_ticks                                   537558462                       # Number of ticks simulated
system.cpu0.branchPred.BTBCorrect                   0                       # Number of correct BTB predictions (this stat may not work properly.
system.cpu0.branchPred.BTBHitPct                  nan                       # BTB Hit Percentage
system.cpu0.branchPred.BTBHits                      0                       # Number of BTB hits
system.cpu0.branchPred.BTBLookups                   0                       # Number of BTB lookups
system.cpu0.branchPred.RASInCorrect                 0                       # Number of incorrect RAS predictions.
system.cpu0.branchPred.condIncorrect                0                       # Number of conditional branches incorrect
system.cpu0.branchPred.condPredicted                0                       # Number of conditional branches predicted
system.cpu0.branchPred.indirectHits                 0                       # Number of indirect target hits.
system.cpu0.branchPred.indirectLookups              0                       # Number of indirect predictor lookups.
system.cpu0.branchPred.indirectMisses               0                       # Number of indirect misses.
system.cpu0.branchPred.lookups                      0                       # Number of BP lookups
system.cpu0.branchPred.usedRAS                      0                       # Number of times the RAS was used to get a target.
system.cpu0.branchPredindirectMispredicted            0                       # Number of mispredicted indirect branches.
system.cpu0.committedInsts                          0                       # Number of instructions committed
system.cpu0.committedOps                            0                       # Number of ops (including micro ops) committed
system.cpu0.cpi                                   nan                       # CPI: cycles per instruction
system.cpu0.dcache.prefetcher.num_hwpf_issued            0                       # number of hwpf issued
system.cpu0.dcache.prefetcher.pfBufferHit            0                       # number of redundant prefetches already in prefetch queue
system.cpu0.dcache.prefetcher.pfIdentified            0                       # number of prefetch candidates identified
system.cpu0.dcache.prefetcher.pfInCache             0                       # number of redundant prefetches already in cache/mshr dropped
system.cpu0.dcache.prefetcher.pfRemovedFull            0                       # number of prefetches dropped due to prefetch queue size
system.cpu0.dcache.prefetcher.pfSpanPage            0                       # number of prefetches that crossed the page
system.cpu0.discardedOps                            0                       # Number of ops (including micro ops) which were discarded before commit
system.cpu0.dtb.accesses                            0                       # DTB accesses
system.cpu0.dtb.align_faults                        0                       # Number of TLB faults due to alignment restrictions
system.cpu0.dtb.domain_faults                       0                       # Number of TLB faults due to domain restrictions
system.cpu0.dtb.flush_entries                       0                       # Number of entries that have been flushed from TLB
system.cpu0.dtb.flush_tlb                           0                       # Number of times complete TLB was flushed
system.cpu0.dtb.flush_tlb_asid                      0                       # Number of times TLB was flushed by ASID
system.cpu0.dtb.flush_tlb_mva                       0                       # Number of times TLB was flushed by MVA
system.cpu0.dtb.flush_tlb_mva_asid                  0                       # Number of times TLB was flushed by MVA & ASID
system.cpu0.dtb.hits                                0                       # DTB hits
system.cpu0.dtb.inst_accesses                       0                       # ITB inst accesses
system.cpu0.dtb.inst_hits                           0                       # ITB inst hits
system.cpu0.dtb.inst_misses                         0                       # ITB inst misses
system.cpu0.dtb.misses                              0                       # DTB misses
system.cpu0.dtb.perms_faults                        0                       # Number of TLB faults due to permissions restrictions
system.cpu0.dtb.prefetch_faults                     0                       # Number of TLB faults due to prefetch
system.cpu0.dtb.read_accesses                       0                       # DTB read accesses
system.cpu0.dtb.read_hits                           0                       # DTB read hits
system.cpu0.dtb.read_misses                         0                       # DTB read misses
system.cpu0.dtb.stage2_mmu.stage2_tlb.accesses            0                       # DTB accesses
system.cpu0.dtb.stage2_mmu.stage2_tlb.align_faults            0                       # Number of TLB faults due to alignment restrictions
system.cpu0.dtb.stage2_mmu.stage2_tlb.domain_faults            0                       # Number of TLB faults due to domain restrictions
system.cpu0.dtb.stage2_mmu.stage2_tlb.flush_entries            0                       # Number of entries that have been flushed from TLB
system.cpu0.dtb.stage2_mmu.stage2_tlb.flush_tlb            0                       # Number of times complete TLB was flushed
system.cpu0.dtb.stage2_mmu.stage2_tlb.flush_tlb_asid            0                       # Number of times TLB was flushed by ASID
system.cpu0.dtb.stage2_mmu.stage2_tlb.flush_tlb_mva            0                       # Number of times TLB was flushed by MVA
system.cpu0.dtb.stage2_mmu.stage2_tlb.flush_tlb_mva_asid            0                       # Number of times TLB was flushed by MVA & ASID
system.cpu0.dtb.stage2_mmu.stage2_tlb.hits            0                       # DTB hits
system.cpu0.dtb.stage2_mmu.stage2_tlb.inst_accesses            0                       # ITB inst accesses
system.cpu0.dtb.stage2_mmu.stage2_tlb.inst_hits            0                       # ITB inst hits
system.cpu0.dtb.stage2_mmu.stage2_tlb.inst_misses            0                       # ITB inst misses
system.cpu0.dtb.stage2_mmu.stage2_tlb.misses            0                       # DTB misses
system.cpu0.dtb.stage2_mmu.stage2_tlb.perms_faults            0                       # Number of TLB faults due to permissions restrictions
system.cpu0.dtb.stage2_mmu.stage2_tlb.prefetch_faults            0                       # Number of TLB faults due to prefetch
system.cpu0.dtb.stage2_mmu.stage2_tlb.read_accesses            0                       # DTB read accesses
system.cpu0.dtb.stage2_mmu.stage2_tlb.read_hits            0                       # DTB read hits
system.cpu0.dtb.stage2_mmu.stage2_tlb.read_misses            0                       # DTB read misses
system.cpu0.dtb.stage2_mmu.stage2_tlb.walker.walkRequestOrigin_Requested::Data            0                       # Table walker requests started/completed, data/inst
system.cpu0.dtb.stage2_mmu.stage2_tlb.walker.walkRequestOrigin_Requested::Inst            0                       # Table walker requests started/completed, data/inst
system.cpu0.dtb.stage2_mmu.stage2_tlb.walker.walkRequestOrigin_Requested::total            0                       # Table walker requests started/completed, data/inst
system.cpu0.dtb.stage2_mmu.stage2_tlb.walker.walkRequestOrigin_Completed::Data            0                       # Table walker requests started/completed, data/inst
system.cpu0.dtb.stage2_mmu.stage2_tlb.walker.walkRequestOrigin_Completed::Inst            0                       # Table walker requests started/completed, data/inst
system.cpu0.dtb.stage2_mmu.stage2_tlb.walker.walkRequestOrigin_Completed::total            0                       # Table walker requests started/completed, data/inst
system.cpu0.dtb.stage2_mmu.stage2_tlb.walker.walkRequestOrigin::total            0                       # Table walker requests started/completed, data/inst
system.cpu0.dtb.stage2_mmu.stage2_tlb.walker.walks            0                       # Table walker walks requested
system.cpu0.dtb.stage2_mmu.stage2_tlb.write_accesses            0                       # DTB write accesses
system.cpu0.dtb.stage2_mmu.stage2_tlb.write_hits            0                       # DTB write hits
system.cpu0.dtb.stage2_mmu.stage2_tlb.write_misses            0                       # DTB write misses
system.cpu0.dtb.walker.walkRequestOrigin_Requested::Data            0                       # Table walker requests started/completed, data/inst
system.cpu0.dtb.walker.walkRequestOrigin_Requested::Inst            0                       # Table walker requests started/completed, data/inst
system.cpu0.dtb.walker.walkRequestOrigin_Requested::total            0                       # Table walker requests started/completed, data/inst
system.cpu0.dtb.walker.walkRequestOrigin_Completed::Data            0                       # Table walker requests started/completed, data/inst
system.cpu0.dtb.walker.walkRequestOrigin_Completed::Inst            0                       # Table walker requests started/completed, data/inst
system.cpu0.dtb.walker.walkRequestOrigin_Completed::total            0                       # Table walker requests started/completed, data/inst
system.cpu0.dtb.walker.walkRequestOrigin::total            0                       # Table walker requests started/completed, data/inst
system.cpu0.dtb.walker.walks                        0                       # Table walker walks requested
system.cpu0.dtb.write_accesses                      0                       # DTB write accesses
system.cpu0.dtb.write_hits                          0                       # DTB write hits
system.cpu0.dtb.write_misses                        0                       # DTB write misses
system.cpu0.fetch2.amo_instructions                 0                       # Number of memory atomic instructions successfully decoded
system.cpu0.fetch2.fp_instructions                  0                       # Number of floating point instructions successfully decoded
system.cpu0.fetch2.int_instructions                 0                       # Number of integer instructions successfully decoded
system.cpu0.fetch2.load_instructions                0                       # Number of memory load instructions successfully decoded
system.cpu0.fetch2.store_instructions               0                       # Number of memory store instructions successfully decoded
system.cpu0.fetch2.vec_instructions                 0                       # Number of SIMD instructions successfully decoded
system.cpu0.idleCycles                              0                       # Total number of cycles that the object has spent stopped
system.cpu0.ipc                                   nan                       # IPC: instructions per cycle
system.cpu0.itb.accesses                            0                       # DTB accesses
system.cpu0.itb.align_faults                        0                       # Number of TLB faults due to alignment restrictions
system.cpu0.itb.domain_faults                       0                       # Number of TLB faults due to domain restrictions
system.cpu0.itb.flush_entries                       0                       # Number of entries that have been flushed from TLB
system.cpu0.itb.flush_tlb                           0                       # Number of times complete TLB was flushed
system.cpu0.itb.flush_tlb_asid                      0                       # Number of times TLB was flushed by ASID
system.cpu0.itb.flush_tlb_mva                       0                       # Number of times TLB was flushed by MVA
system.cpu0.itb.flush_tlb_mva_asid                  0                       # Number of times TLB was flushed by MVA & ASID
system.cpu0.itb.hits                                0                       # DTB hits
system.cpu0.itb.inst_accesses                       0                       # ITB inst accesses
system.cpu0.itb.inst_hits                           0                       # ITB inst hits
system.cpu0.itb.inst_misses                         0                       # ITB inst misses
system.cpu0.itb.misses                              0                       # DTB misses
system.cpu0.itb.perms_faults                        0                       # Number of TLB faults due to permissions restrictions
system.cpu0.itb.prefetch_faults                     0                       # Number of TLB faults due to prefetch
system.cpu0.itb.read_accesses                       0                       # DTB read accesses
system.cpu0.itb.read_hits                           0                       # DTB read hits
system.cpu0.itb.read_misses                         0                       # DTB read misses
system.cpu0.itb.stage2_mmu.stage2_tlb.accesses            0                       # DTB accesses
system.cpu0.itb.stage2_mmu.stage2_tlb.align_faults            0                       # Number of TLB faults due to alignment restrictions
system.cpu0.itb.stage2_mmu.stage2_tlb.domain_faults            0                       # Number of TLB faults due to domain restrictions
system.cpu0.itb.stage2_mmu.stage2_tlb.flush_entries            0                       # Number of entries that have been flushed from TLB
system.cpu0.itb.stage2_mmu.stage2_tlb.flush_tlb            0                       # Number of times complete TLB was flushed
system.cpu0.itb.stage2_mmu.stage2_tlb.flush_tlb_asid            0                       # Number of times TLB was flushed by ASID
system.cpu0.itb.stage2_mmu.stage2_tlb.flush_tlb_mva            0                       # Number of times TLB was flushed by MVA
system.cpu0.itb.stage2_mmu.stage2_tlb.flush_tlb_mva_asid            0                       # Number of times TLB was flushed by MVA & ASID
system.cpu0.itb.stage2_mmu.stage2_tlb.hits            0                       # DTB hits
system.cpu0.itb.stage2_mmu.stage2_tlb.inst_accesses            0                       # ITB inst accesses
system.cpu0.itb.stage2_mmu.stage2_tlb.inst_hits            0                       # ITB inst hits
system.cpu0.itb.stage2_mmu.stage2_tlb.inst_misses            0                       # ITB inst misses
system.cpu0.itb.stage2_mmu.stage2_tlb.misses            0                       # DTB misses
system.cpu0.itb.stage2_mmu.stage2_tlb.perms_faults            0                       # Number of TLB faults due to permissions restrictions
system.cpu0.itb.stage2_mmu.stage2_tlb.prefetch_faults            0                       # Number of TLB faults due to prefetch
system.cpu0.itb.stage2_mmu.stage2_tlb.read_accesses            0                       # DTB read accesses
system.cpu0.itb.stage2_mmu.stage2_tlb.read_hits            0                       # DTB read hits
system.cpu0.itb.stage2_mmu.stage2_tlb.read_misses            0                       # DTB read misses
system.cpu0.itb.stage2_mmu.stage2_tlb.walker.walkRequestOrigin_Requested::Data            0                       # Table walker requests started/completed, data/inst
system.cpu0.itb.stage2_mmu.stage2_tlb.walker.walkRequestOrigin_Requested::Inst            0                       # Table walker requests started/completed, data/inst
system.cpu0.itb.stage2_mmu.stage2_tlb.walker.walkRequestOrigin_Requested::total            0                       # Table walker requests started/completed, data/inst
system.cpu0.itb.stage2_mmu.stage2_tlb.walker.walkRequestOrigin_Completed::Data            0                       # Table walker requests started/completed, data/inst
system.cpu0.itb.stage2_mmu.stage2_tlb.walker.walkRequestOrigin_Completed::Inst            0                       # Table walker requests started/completed, data/inst
system.cpu0.itb.stage2_mmu.stage2_tlb.walker.walkRequestOrigin_Completed::total            0                       # Table walker requests started/completed, data/inst
system.cpu0.itb.stage2_mmu.stage2_tlb.walker.walkRequestOrigin::total            0                       # Table walker requests started/completed, data/inst
system.cpu0.itb.stage2_mmu.stage2_tlb.walker.walks            0                       # Table walker walks requested
system.cpu0.itb.stage2_mmu.stage2_tlb.write_accesses            0                       # DTB write accesses
system.cpu0.itb.stage2_mmu.stage2_tlb.write_hits            0                       # DTB write hits
system.cpu0.itb.stage2_mmu.stage2_tlb.write_misses            0                       # DTB write misses
system.cpu0.itb.walker.walkRequestOrigin_Requested::Data            0                       # Table walker requests started/completed, data/inst
system.cpu0.itb.walker.walkRequestOrigin_Requested::Inst            0                       # Table walker requests started/completed, data/inst
system.cpu0.itb.walker.walkRequestOrigin_Requested::total            0                       # Table walker requests started/completed, data/inst
system.cpu0.itb.walker.walkRequestOrigin_Completed::Data            0                       # Table walker requests started/completed, data/inst
system.cpu0.itb.walker.walkRequestOrigin_Completed::Inst            0                       # Table walker requests started/completed, data/inst
system.cpu0.itb.walker.walkRequestOrigin_Completed::total            0                       # Table walker requests started/completed, data/inst
system.cpu0.itb.walker.walkRequestOrigin::total            0                       # Table walker requests started/completed, data/inst
system.cpu0.itb.walker.walks                        0                       # Table walker walks requested
system.cpu0.itb.write_accesses                      0                       # DTB write accesses
system.cpu0.itb.write_hits                          0                       # DTB write hits
system.cpu0.itb.write_misses                        0                       # DTB write misses
system.cpu0.kern.inst.arm                           0                       # number of arm instructions executed
system.cpu0.kern.inst.quiesce                       0                       # number of quiesce instructions executed
system.cpu0.numCycles                               0                       # number of cpu cycles simulated
system.cpu0.numFetchSuspends                        0                       # Number of times Execute suspended instruction fetching
system.cpu0.numWorkItemsCompleted                   0                       # number of work items this cpu completed
system.cpu0.numWorkItemsStarted                     0                       # number of work items this cpu started
system.cpu0.op_class_0::No_OpClass                  0                       # Class of committed instruction
system.cpu0.op_class_0::IntAlu                      0                       # Class of committed instruction
system.cpu0.op_class_0::IntMult                     0                       # Class of committed instruction
system.cpu0.op_class_0::IntDiv                      0                       # Class of committed instruction
system.cpu0.op_class_0::FloatAdd                    0                       # Class of committed instruction
system.cpu0.op_class_0::FloatCmp                    0                       # Class of committed instruction
system.cpu0.op_class_0::FloatCvt                    0                       # Class of committed instruction
system.cpu0.op_class_0::FloatMult                   0                       # Class of committed instruction
system.cpu0.op_class_0::FloatMultAcc                0                       # Class of committed instruction
system.cpu0.op_class_0::FloatDiv                    0                       # Class of committed instruction
system.cpu0.op_class_0::FloatMisc                   0                       # Class of committed instruction
system.cpu0.op_class_0::FloatSqrt                   0                       # Class of committed instruction
system.cpu0.op_class_0::SimdAdd                     0                       # Class of committed instruction
system.cpu0.op_class_0::SimdAddAcc                  0                       # Class of committed instruction
system.cpu0.op_class_0::SimdAlu                     0                       # Class of committed instruction
system.cpu0.op_class_0::SimdCmp                     0                       # Class of committed instruction
system.cpu0.op_class_0::SimdCvt                     0                       # Class of committed instruction
system.cpu0.op_class_0::SimdMisc                    0                       # Class of committed instruction
system.cpu0.op_class_0::SimdMult                    0                       # Class of committed instruction
system.cpu0.op_class_0::SimdMultAcc                 0                       # Class of committed instruction
system.cpu0.op_class_0::SimdShift                   0                       # Class of committed instruction
system.cpu0.op_class_0::SimdShiftAcc                0                       # Class of committed instruction
system.cpu0.op_class_0::SimdDiv                     0                       # Class of committed instruction
system.cpu0.op_class_0::SimdSqrt                    0                       # Class of committed instruction
system.cpu0.op_class_0::SimdFloatAdd                0                       # Class of committed instruction
system.cpu0.op_class_0::SimdFloatAlu                0                       # Class of committed instruction
system.cpu0.op_class_0::SimdFloatCmp                0                       # Class of committed instruction
system.cpu0.op_class_0::SimdFloatCvt                0                       # Class of committed instruction
system.cpu0.op_class_0::SimdFloatDiv                0                       # Class of committed instruction
system.cpu0.op_class_0::SimdFloatMisc               0                       # Class of committed instruction
system.cpu0.op_class_0::SimdFloatMult               0                       # Class of committed instruction
system.cpu0.op_class_0::SimdFloatMultAcc            0                       # Class of committed instruction
system.cpu0.op_class_0::SimdFloatSqrt               0                       # Class of committed instruction
system.cpu0.op_class_0::SimdReduceAdd               0                       # Class of committed instruction
system.cpu0.op_class_0::SimdReduceAlu               0                       # Class of committed instruction
system.cpu0.op_class_0::SimdReduceCmp               0                       # Class of committed instruction
system.cpu0.op_class_0::SimdFloatReduceAdd            0                       # Class of committed instruction
system.cpu0.op_class_0::SimdFloatReduceCmp            0                       # Class of committed instruction
system.cpu0.op_class_0::SimdAes                     0                       # Class of committed instruction
system.cpu0.op_class_0::SimdAesMix                  0                       # Class of committed instruction
system.cpu0.op_class_0::SimdSha1Hash                0                       # Class of committed instruction
system.cpu0.op_class_0::SimdSha1Hash2               0                       # Class of committed instruction
system.cpu0.op_class_0::SimdSha256Hash              0                       # Class of committed instruction
system.cpu0.op_class_0::SimdSha256Hash2             0                       # Class of committed instruction
system.cpu0.op_class_0::SimdShaSigma2               0                       # Class of committed instruction
system.cpu0.op_class_0::SimdShaSigma3               0                       # Class of committed instruction
system.cpu0.op_class_0::SimdPredAlu                 0                       # Class of committed instruction
system.cpu0.op_class_0::MemRead                     0                       # Class of committed instruction
system.cpu0.op_class_0::MemWrite                    0                       # Class of committed instruction
system.cpu0.op_class_0::FloatMemRead                0                       # Class of committed instruction
system.cpu0.op_class_0::FloatMemWrite               0                       # Class of committed instruction
system.cpu0.op_class_0::IprAccess                   0                       # Class of committed instruction
system.cpu0.op_class_0::InstPrefetch                0                       # Class of committed instruction
system.cpu0.op_class_0::total                       0                       # Class of committed instruction
system.cpu0.tickCycles                              0                       # Number of cycles that the object actually ticked
system.cpu1.branchPred.BTBCorrect                   0                       # Number of correct BTB predictions (this stat may not work properly.
system.cpu1.branchPred.BTBHitPct            32.825344                       # BTB Hit Percentage
system.cpu1.branchPred.BTBHits                  19687                       # Number of BTB hits
system.cpu1.branchPred.BTBLookups               59975                       # Number of BTB lookups
system.cpu1.branchPred.RASInCorrect               152                       # Number of incorrect RAS predictions.
system.cpu1.branchPred.condIncorrect            15777                       # Number of conditional branches incorrect
system.cpu1.branchPred.condPredicted            23228                       # Number of conditional branches predicted
system.cpu1.branchPred.indirectHits               284                       # Number of indirect target hits.
system.cpu1.branchPred.indirectLookups            723                       # Number of indirect predictor lookups.
system.cpu1.branchPred.indirectMisses             439                       # Number of indirect misses.
system.cpu1.branchPred.lookups                  99438                       # Number of BP lookups
system.cpu1.branchPred.usedRAS                  35369                       # Number of times the RAS was used to get a target.
system.cpu1.branchPredindirectMispredicted           14                       # Number of mispredicted indirect branches.
system.cpu1.committedInsts                     375934                       # Number of instructions committed
system.cpu1.committedOps                       461147                       # Number of ops (including micro ops) committed
system.cpu1.cpi                              2.002700                       # CPI: cycles per instruction
system.cpu1.dcache.prefetcher.num_hwpf_issued           16                       # number of hwpf issued
system.cpu1.dcache.prefetcher.pfBufferHit            0                       # number of redundant prefetches already in prefetch queue
system.cpu1.dcache.prefetcher.pfIdentified           16                       # number of prefetch candidates identified
system.cpu1.dcache.prefetcher.pfInCache             0                       # number of redundant prefetches already in cache/mshr dropped
system.cpu1.dcache.prefetcher.pfRemovedFull            0                       # number of prefetches dropped due to prefetch queue size
system.cpu1.dcache.prefetcher.pfSpanPage            0                       # number of prefetches that crossed the page
system.cpu1.discardedOps                        52734                       # Number of ops (including micro ops) which were discarded before commit
system.cpu1.dtb.accesses                       174229                       # DTB accesses
system.cpu1.dtb.align_faults                        0                       # Number of TLB faults due to alignment restrictions
system.cpu1.dtb.domain_faults                       0                       # Number of TLB faults due to domain restrictions
system.cpu1.dtb.flush_entries                       0                       # Number of entries that have been flushed from TLB
system.cpu1.dtb.flush_tlb                           0                       # Number of times complete TLB was flushed
system.cpu1.dtb.flush_tlb_asid                      0                       # Number of times TLB was flushed by ASID
system.cpu1.dtb.flush_tlb_mva                       0                       # Number of times TLB was flushed by MVA
system.cpu1.dtb.flush_tlb_mva_asid                  0                       # Number of times TLB was flushed by MVA & ASID
system.cpu1.dtb.hits                           174198                       # DTB hits
system.cpu1.dtb.inst_accesses                       0                       # ITB inst accesses
system.cpu1.dtb.inst_hits                           0                       # ITB inst hits
system.cpu1.dtb.inst_misses                         0                       # ITB inst misses
system.cpu1.dtb.misses                             31                       # DTB misses
system.cpu1.dtb.perms_faults                        0                       # Number of TLB faults due to permissions restrictions
system.cpu1.dtb.prefetch_faults                     0                       # Number of TLB faults due to prefetch
system.cpu1.dtb.read_accesses                   95798                       # DTB read accesses
system.cpu1.dtb.read_hits                       95767                       # DTB read hits
system.cpu1.dtb.read_misses                        31                       # DTB read misses
system.cpu1.dtb.stage2_mmu.stage2_tlb.accesses            0                       # DTB accesses
system.cpu1.dtb.stage2_mmu.stage2_tlb.align_faults            0                       # Number of TLB faults due to alignment restrictions
system.cpu1.dtb.stage2_mmu.stage2_tlb.domain_faults            0                       # Number of TLB faults due to domain restrictions
system.cpu1.dtb.stage2_mmu.stage2_tlb.flush_entries            0                       # Number of entries that have been flushed from TLB
system.cpu1.dtb.stage2_mmu.stage2_tlb.flush_tlb            0                       # Number of times complete TLB was flushed
system.cpu1.dtb.stage2_mmu.stage2_tlb.flush_tlb_asid            0                       # Number of times TLB was flushed by ASID
system.cpu1.dtb.stage2_mmu.stage2_tlb.flush_tlb_mva            0                       # Number of times TLB was flushed by MVA
system.cpu1.dtb.stage2_mmu.stage2_tlb.flush_tlb_mva_asid            0                       # Number of times TLB was flushed by MVA & ASID
system.cpu1.dtb.stage2_mmu.stage2_tlb.hits            0                       # DTB hits
system.cpu1.dtb.stage2_mmu.stage2_tlb.inst_accesses            0                       # ITB inst accesses
system.cpu1.dtb.stage2_mmu.stage2_tlb.inst_hits            0                       # ITB inst hits
system.cpu1.dtb.stage2_mmu.stage2_tlb.inst_misses            0                       # ITB inst misses
system.cpu1.dtb.stage2_mmu.stage2_tlb.misses            0                       # DTB misses
system.cpu1.dtb.stage2_mmu.stage2_tlb.perms_faults            0                       # Number of TLB faults due to permissions restrictions
system.cpu1.dtb.stage2_mmu.stage2_tlb.prefetch_faults            0                       # Number of TLB faults due to prefetch
system.cpu1.dtb.stage2_mmu.stage2_tlb.read_accesses            0                       # DTB read accesses
system.cpu1.dtb.stage2_mmu.stage2_tlb.read_hits            0                       # DTB read hits
system.cpu1.dtb.stage2_mmu.stage2_tlb.read_misses            0                       # DTB read misses
system.cpu1.dtb.stage2_mmu.stage2_tlb.walker.walkRequestOrigin_Requested::Data            0                       # Table walker requests started/completed, data/inst
system.cpu1.dtb.stage2_mmu.stage2_tlb.walker.walkRequestOrigin_Requested::Inst            0                       # Table walker requests started/completed, data/inst
system.cpu1.dtb.stage2_mmu.stage2_tlb.walker.walkRequestOrigin_Requested::total            0                       # Table walker requests started/completed, data/inst
system.cpu1.dtb.stage2_mmu.stage2_tlb.walker.walkRequestOrigin_Completed::Data            0                       # Table walker requests started/completed, data/inst
system.cpu1.dtb.stage2_mmu.stage2_tlb.walker.walkRequestOrigin_Completed::Inst            0                       # Table walker requests started/completed, data/inst
system.cpu1.dtb.stage2_mmu.stage2_tlb.walker.walkRequestOrigin_Completed::total            0                       # Table walker requests started/completed, data/inst
system.cpu1.dtb.stage2_mmu.stage2_tlb.walker.walkRequestOrigin::total            0                       # Table walker requests started/completed, data/inst
system.cpu1.dtb.stage2_mmu.stage2_tlb.walker.walks            0                       # Table walker walks requested
system.cpu1.dtb.stage2_mmu.stage2_tlb.write_accesses            0                       # DTB write accesses
system.cpu1.dtb.stage2_mmu.stage2_tlb.write_hits            0                       # DTB write hits
system.cpu1.dtb.stage2_mmu.stage2_tlb.write_misses            0                       # DTB write misses
system.cpu1.dtb.walker.walkRequestOrigin_Requested::Data           31                       # Table walker requests started/completed, data/inst
system.cpu1.dtb.walker.walkRequestOrigin_Requested::Inst            0                       # Table walker requests started/completed, data/inst
system.cpu1.dtb.walker.walkRequestOrigin_Requested::total           31                       # Table walker requests started/completed, data/inst
system.cpu1.dtb.walker.walkRequestOrigin_Completed::Data            0                       # Table walker requests started/completed, data/inst
system.cpu1.dtb.walker.walkRequestOrigin_Completed::Inst            0                       # Table walker requests started/completed, data/inst
system.cpu1.dtb.walker.walkRequestOrigin_Completed::total            0                       # Table walker requests started/completed, data/inst
system.cpu1.dtb.walker.walkRequestOrigin::total           31                       # Table walker requests started/completed, data/inst
system.cpu1.dtb.walker.walkWaitTime::samples           31                       # Table walker wait (enqueue to first request) latency
system.cpu1.dtb.walker.walkWaitTime::0             31    100.00%    100.00% # Table walker wait (enqueue to first request) latency
system.cpu1.dtb.walker.walkWaitTime::total           31                       # Table walker wait (enqueue to first request) latency
system.cpu1.dtb.walker.walks                       31                       # Table walker walks requested
system.cpu1.dtb.walker.walksLong                   31                       # Table walker walks initiated with long descriptors
system.cpu1.dtb.write_accesses                  78431                       # DTB write accesses
system.cpu1.dtb.write_hits                      78431                       # DTB write hits
system.cpu1.dtb.write_misses                        0                       # DTB write misses
system.cpu1.fetch2.amo_instructions                 0                       # Number of memory atomic instructions successfully decoded
system.cpu1.fetch2.fp_instructions                  0                       # Number of floating point instructions successfully decoded
system.cpu1.fetch2.int_instructions            352363                       # Number of integer instructions successfully decoded
system.cpu1.fetch2.load_instructions            92140                       # Number of memory load instructions successfully decoded
system.cpu1.fetch2.store_instructions           43316                       # Number of memory store instructions successfully decoded
system.cpu1.fetch2.vec_instructions                 0                       # Number of SIMD instructions successfully decoded
system.cpu1.idleCycles                         123649                       # Total number of cycles that the object has spent stopped
system.cpu1.ipc                              0.499326                       # IPC: instructions per cycle
system.cpu1.itb.accesses                       192415                       # DTB accesses
system.cpu1.itb.align_faults                        0                       # Number of TLB faults due to alignment restrictions
system.cpu1.itb.domain_faults                       0                       # Number of TLB faults due to domain restrictions
system.cpu1.itb.flush_entries                       0                       # Number of entries that have been flushed from TLB
system.cpu1.itb.flush_tlb                           0                       # Number of times complete TLB was flushed
system.cpu1.itb.flush_tlb_asid                      0                       # Number of times TLB was flushed by ASID
system.cpu1.itb.flush_tlb_mva                       0                       # Number of times TLB was flushed by MVA
system.cpu1.itb.flush_tlb_mva_asid                  0                       # Number of times TLB was flushed by MVA & ASID
system.cpu1.itb.hits                           192200                       # DTB hits
system.cpu1.itb.inst_accesses                  192415                       # ITB inst accesses
system.cpu1.itb.inst_hits                      192200                       # ITB inst hits
system.cpu1.itb.inst_misses                       215                       # ITB inst misses
system.cpu1.itb.misses                            215                       # DTB misses
system.cpu1.itb.perms_faults                        0                       # Number of TLB faults due to permissions restrictions
system.cpu1.itb.prefetch_faults                     0                       # Number of TLB faults due to prefetch
system.cpu1.itb.read_accesses                       0                       # DTB read accesses
system.cpu1.itb.read_hits                           0                       # DTB read hits
system.cpu1.itb.read_misses                         0                       # DTB read misses
system.cpu1.itb.stage2_mmu.stage2_tlb.accesses            0                       # DTB accesses
system.cpu1.itb.stage2_mmu.stage2_tlb.align_faults            0                       # Number of TLB faults due to alignment restrictions
system.cpu1.itb.stage2_mmu.stage2_tlb.domain_faults            0                       # Number of TLB faults due to domain restrictions
system.cpu1.itb.stage2_mmu.stage2_tlb.flush_entries            0                       # Number of entries that have been flushed from TLB
system.cpu1.itb.stage2_mmu.stage2_tlb.flush_tlb            0                       # Number of times complete TLB was flushed
system.cpu1.itb.stage2_mmu.stage2_tlb.flush_tlb_asid            0                       # Number of times TLB was flushed by ASID
system.cpu1.itb.stage2_mmu.stage2_tlb.flush_tlb_mva            0                       # Number of times TLB was flushed by MVA
system.cpu1.itb.stage2_mmu.stage2_tlb.flush_tlb_mva_asid            0                       # Number of times TLB was flushed by MVA & ASID
system.cpu1.itb.stage2_mmu.stage2_tlb.hits            0                       # DTB hits
system.cpu1.itb.stage2_mmu.stage2_tlb.inst_accesses            0                       # ITB inst accesses
system.cpu1.itb.stage2_mmu.stage2_tlb.inst_hits            0                       # ITB inst hits
system.cpu1.itb.stage2_mmu.stage2_tlb.inst_misses            0                       # ITB inst misses
system.cpu1.itb.stage2_mmu.stage2_tlb.misses            0                       # DTB misses
system.cpu1.itb.stage2_mmu.stage2_tlb.perms_faults            0                       # Number of TLB faults due to permissions restrictions
system.cpu1.itb.stage2_mmu.stage2_tlb.prefetch_faults            0                       # Number of TLB faults due to prefetch
system.cpu1.itb.stage2_mmu.stage2_tlb.read_accesses            0                       # DTB read accesses
system.cpu1.itb.stage2_mmu.stage2_tlb.read_hits            0                       # DTB read hits
system.cpu1.itb.stage2_mmu.stage2_tlb.read_misses            0                       # DTB read misses
system.cpu1.itb.stage2_mmu.stage2_tlb.walker.walkRequestOrigin_Requested::Data            0                       # Table walker requests started/completed, data/inst
system.cpu1.itb.stage2_mmu.stage2_tlb.walker.walkRequestOrigin_Requested::Inst            0                       # Table walker requests started/completed, data/inst
system.cpu1.itb.stage2_mmu.stage2_tlb.walker.walkRequestOrigin_Requested::total            0                       # Table walker requests started/completed, data/inst
system.cpu1.itb.stage2_mmu.stage2_tlb.walker.walkRequestOrigin_Completed::Data            0                       # Table walker requests started/completed, data/inst
system.cpu1.itb.stage2_mmu.stage2_tlb.walker.walkRequestOrigin_Completed::Inst            0                       # Table walker requests started/completed, data/inst
system.cpu1.itb.stage2_mmu.stage2_tlb.walker.walkRequestOrigin_Completed::total            0                       # Table walker requests started/completed, data/inst
system.cpu1.itb.stage2_mmu.stage2_tlb.walker.walkRequestOrigin::total            0                       # Table walker requests started/completed, data/inst
system.cpu1.itb.stage2_mmu.stage2_tlb.walker.walks            0                       # Table walker walks requested
system.cpu1.itb.stage2_mmu.stage2_tlb.write_accesses            0                       # DTB write accesses
system.cpu1.itb.stage2_mmu.stage2_tlb.write_hits            0                       # DTB write hits
system.cpu1.itb.stage2_mmu.stage2_tlb.write_misses            0                       # DTB write misses
system.cpu1.itb.walker.walkRequestOrigin_Requested::Data            0                       # Table walker requests started/completed, data/inst
system.cpu1.itb.walker.walkRequestOrigin_Requested::Inst          215                       # Table walker requests started/completed, data/inst
system.cpu1.itb.walker.walkRequestOrigin_Requested::total          215                       # Table walker requests started/completed, data/inst
system.cpu1.itb.walker.walkRequestOrigin_Completed::Data            0                       # Table walker requests started/completed, data/inst
system.cpu1.itb.walker.walkRequestOrigin_Completed::Inst            0                       # Table walker requests started/completed, data/inst
system.cpu1.itb.walker.walkRequestOrigin_Completed::total            0                       # Table walker requests started/completed, data/inst
system.cpu1.itb.walker.walkRequestOrigin::total          215                       # Table walker requests started/completed, data/inst
system.cpu1.itb.walker.walkWaitTime::samples          215                       # Table walker wait (enqueue to first request) latency
system.cpu1.itb.walker.walkWaitTime::0            215    100.00%    100.00% # Table walker wait (enqueue to first request) latency
system.cpu1.itb.walker.walkWaitTime::total          215                       # Table walker wait (enqueue to first request) latency
system.cpu1.itb.walker.walks                      215                       # Table walker walks requested
system.cpu1.itb.walker.walksLong                  215                       # Table walker walks initiated with long descriptors
system.cpu1.itb.write_accesses                      0                       # DTB write accesses
system.cpu1.itb.write_hits                          0                       # DTB write hits
system.cpu1.itb.write_misses                        0                       # DTB write misses
system.cpu1.kern.inst.arm                           0                       # number of arm instructions executed
system.cpu1.kern.inst.quiesce                       0                       # number of quiesce instructions executed
system.cpu1.numCycles                          752883                       # number of cpu cycles simulated
system.cpu1.numFetchSuspends                        0                       # Number of times Execute suspended instruction fetching
system.cpu1.numWorkItemsCompleted                   0                       # number of work items this cpu completed
system.cpu1.numWorkItemsStarted                     0                       # number of work items this cpu started
system.cpu1.op_class_0::No_OpClass                  0      0.00%      0.00% # Class of committed instruction
system.cpu1.op_class_0::IntAlu                 294325     63.82%     63.82% # Class of committed instruction
system.cpu1.op_class_0::IntMult                  2917      0.63%     64.46% # Class of committed instruction
system.cpu1.op_class_0::IntDiv                      0      0.00%     64.46% # Class of committed instruction
system.cpu1.op_class_0::FloatAdd                    0      0.00%     64.46% # Class of committed instruction
system.cpu1.op_class_0::FloatCmp                    0      0.00%     64.46% # Class of committed instruction
system.cpu1.op_class_0::FloatCvt                    0      0.00%     64.46% # Class of committed instruction
system.cpu1.op_class_0::FloatMult                   0      0.00%     64.46% # Class of committed instruction
system.cpu1.op_class_0::FloatMultAcc                0      0.00%     64.46% # Class of committed instruction
system.cpu1.op_class_0::FloatDiv                    0      0.00%     64.46% # Class of committed instruction
system.cpu1.op_class_0::FloatMisc                   0      0.00%     64.46% # Class of committed instruction
system.cpu1.op_class_0::FloatSqrt                   0      0.00%     64.46% # Class of committed instruction
system.cpu1.op_class_0::SimdAdd                     0      0.00%     64.46% # Class of committed instruction
system.cpu1.op_class_0::SimdAddAcc                  0      0.00%     64.46% # Class of committed instruction
system.cpu1.op_class_0::SimdAlu                     0      0.00%     64.46% # Class of committed instruction
system.cpu1.op_class_0::SimdCmp                     0      0.00%     64.46% # Class of committed instruction
system.cpu1.op_class_0::SimdCvt                     0      0.00%     64.46% # Class of committed instruction
system.cpu1.op_class_0::SimdMisc                    0      0.00%     64.46% # Class of committed instruction
system.cpu1.op_class_0::SimdMult                    0      0.00%     64.46% # Class of committed instruction
system.cpu1.op_class_0::SimdMultAcc                 0      0.00%     64.46% # Class of committed instruction
system.cpu1.op_class_0::SimdShift                   0      0.00%     64.46% # Class of committed instruction
system.cpu1.op_class_0::SimdShiftAcc                0      0.00%     64.46% # Class of committed instruction
system.cpu1.op_class_0::SimdDiv                     0      0.00%     64.46% # Class of committed instruction
system.cpu1.op_class_0::SimdSqrt                    0      0.00%     64.46% # Class of committed instruction
system.cpu1.op_class_0::SimdFloatAdd                0      0.00%     64.46% # Class of committed instruction
system.cpu1.op_class_0::SimdFloatAlu                0      0.00%     64.46% # Class of committed instruction
system.cpu1.op_class_0::SimdFloatCmp                0      0.00%     64.46% # Class of committed instruction
system.cpu1.op_class_0::SimdFloatCvt                0      0.00%     64.46% # Class of committed instruction
system.cpu1.op_class_0::SimdFloatDiv                0      0.00%     64.46% # Class of committed instruction
system.cpu1.op_class_0::SimdFloatMisc              29      0.01%     64.46% # Class of committed instruction
system.cpu1.op_class_0::SimdFloatMult               0      0.00%     64.46% # Class of committed instruction
system.cpu1.op_class_0::SimdFloatMultAcc            0      0.00%     64.46% # Class of committed instruction
system.cpu1.op_class_0::SimdFloatSqrt               0      0.00%     64.46% # Class of committed instruction
system.cpu1.op_class_0::SimdReduceAdd               0      0.00%     64.46% # Class of committed instruction
system.cpu1.op_class_0::SimdReduceAlu               0      0.00%     64.46% # Class of committed instruction
system.cpu1.op_class_0::SimdReduceCmp               0      0.00%     64.46% # Class of committed instruction
system.cpu1.op_class_0::SimdFloatReduceAdd            0      0.00%     64.46% # Class of committed instruction
system.cpu1.op_class_0::SimdFloatReduceCmp            0      0.00%     64.46% # Class of committed instruction
system.cpu1.op_class_0::SimdAes                     0      0.00%     64.46% # Class of committed instruction
system.cpu1.op_class_0::SimdAesMix                  0      0.00%     64.46% # Class of committed instruction
system.cpu1.op_class_0::SimdSha1Hash                0      0.00%     64.46% # Class of committed instruction
system.cpu1.op_class_0::SimdSha1Hash2               0      0.00%     64.46% # Class of committed instruction
system.cpu1.op_class_0::SimdSha256Hash              0      0.00%     64.46% # Class of committed instruction
system.cpu1.op_class_0::SimdSha256Hash2             0      0.00%     64.46% # Class of committed instruction
system.cpu1.op_class_0::SimdShaSigma2               0      0.00%     64.46% # Class of committed instruction
system.cpu1.op_class_0::SimdShaSigma3               0      0.00%     64.46% # Class of committed instruction
system.cpu1.op_class_0::SimdPredAlu                 0      0.00%     64.46% # Class of committed instruction
system.cpu1.op_class_0::MemRead                 86041     18.66%     83.12% # Class of committed instruction
system.cpu1.op_class_0::MemWrite                77835     16.88%    100.00% # Class of committed instruction
system.cpu1.op_class_0::FloatMemRead                0      0.00%    100.00% # Class of committed instruction
system.cpu1.op_class_0::FloatMemWrite               0      0.00%    100.00% # Class of committed instruction
system.cpu1.op_class_0::IprAccess                   0      0.00%    100.00% # Class of committed instruction
system.cpu1.op_class_0::InstPrefetch                0      0.00%    100.00% # Class of committed instruction
system.cpu1.op_class_0::total                  461147                       # Class of committed instruction
system.cpu1.tickCycles                         629234                       # Number of cycles that the object actually ticked
system.cpu2.branchPred.BTBCorrect                   0                       # Number of correct BTB predictions (this stat may not work properly.
system.cpu2.branchPred.BTBHitPct                  nan                       # BTB Hit Percentage
system.cpu2.branchPred.BTBHits                      0                       # Number of BTB hits
system.cpu2.branchPred.BTBLookups                   0                       # Number of BTB lookups
system.cpu2.branchPred.RASInCorrect                 0                       # Number of incorrect RAS predictions.
system.cpu2.branchPred.condIncorrect                0                       # Number of conditional branches incorrect
system.cpu2.branchPred.condPredicted                0                       # Number of conditional branches predicted
system.cpu2.branchPred.indirectHits                 0                       # Number of indirect target hits.
system.cpu2.branchPred.indirectLookups              0                       # Number of indirect predictor lookups.
system.cpu2.branchPred.indirectMisses               0                       # Number of indirect misses.
system.cpu2.branchPred.lookups                      0                       # Number of BP lookups
system.cpu2.branchPred.usedRAS                      0                       # Number of times the RAS was used to get a target.
system.cpu2.branchPredindirectMispredicted            0                       # Number of mispredicted indirect branches.
system.cpu2.committedInsts                          0                       # Number of instructions committed
system.cpu2.committedOps                            0                       # Number of ops (including micro ops) committed
system.cpu2.cpi                                   nan                       # CPI: cycles per instruction
system.cpu2.dcache.prefetcher.num_hwpf_issued            0                       # number of hwpf issued
system.cpu2.dcache.prefetcher.pfBufferHit            0                       # number of redundant prefetches already in prefetch queue
system.cpu2.dcache.prefetcher.pfIdentified            0                       # number of prefetch candidates identified
system.cpu2.dcache.prefetcher.pfInCache             0                       # number of redundant prefetches already in cache/mshr dropped
system.cpu2.dcache.prefetcher.pfRemovedFull            0                       # number of prefetches dropped due to prefetch queue size
system.cpu2.dcache.prefetcher.pfSpanPage            0                       # number of prefetches that crossed the page
system.cpu2.discardedOps                            0                       # Number of ops (including micro ops) which were discarded before commit
system.cpu2.dtb.accesses                            0                       # DTB accesses
system.cpu2.dtb.align_faults                        0                       # Number of TLB faults due to alignment restrictions
system.cpu2.dtb.domain_faults                       0                       # Number of TLB faults due to domain restrictions
system.cpu2.dtb.flush_entries                       0                       # Number of entries that have been flushed from TLB
system.cpu2.dtb.flush_tlb                           0                       # Number of times complete TLB was flushed
system.cpu2.dtb.flush_tlb_asid                      0                       # Number of times TLB was flushed by ASID
system.cpu2.dtb.flush_tlb_mva                       0                       # Number of times TLB was flushed by MVA
system.cpu2.dtb.flush_tlb_mva_asid                  0                       # Number of times TLB was flushed by MVA & ASID
system.cpu2.dtb.hits                                0                       # DTB hits
system.cpu2.dtb.inst_accesses                       0                       # ITB inst accesses
system.cpu2.dtb.inst_hits                           0                       # ITB inst hits
system.cpu2.dtb.inst_misses                         0                       # ITB inst misses
system.cpu2.dtb.misses                              0                       # DTB misses
system.cpu2.dtb.perms_faults                        0                       # Number of TLB faults due to permissions restrictions
system.cpu2.dtb.prefetch_faults                     0                       # Number of TLB faults due to prefetch
system.cpu2.dtb.read_accesses                       0                       # DTB read accesses
system.cpu2.dtb.read_hits                           0                       # DTB read hits
system.cpu2.dtb.read_misses                         0                       # DTB read misses
system.cpu2.dtb.stage2_mmu.stage2_tlb.accesses            0                       # DTB accesses
system.cpu2.dtb.stage2_mmu.stage2_tlb.align_faults            0                       # Number of TLB faults due to alignment restrictions
system.cpu2.dtb.stage2_mmu.stage2_tlb.domain_faults            0                       # Number of TLB faults due to domain restrictions
system.cpu2.dtb.stage2_mmu.stage2_tlb.flush_entries            0                       # Number of entries that have been flushed from TLB
system.cpu2.dtb.stage2_mmu.stage2_tlb.flush_tlb            0                       # Number of times complete TLB was flushed
system.cpu2.dtb.stage2_mmu.stage2_tlb.flush_tlb_asid            0                       # Number of times TLB was flushed by ASID
system.cpu2.dtb.stage2_mmu.stage2_tlb.flush_tlb_mva            0                       # Number of times TLB was flushed by MVA
system.cpu2.dtb.stage2_mmu.stage2_tlb.flush_tlb_mva_asid            0                       # Number of times TLB was flushed by MVA & ASID
system.cpu2.dtb.stage2_mmu.stage2_tlb.hits            0                       # DTB hits
system.cpu2.dtb.stage2_mmu.stage2_tlb.inst_accesses            0                       # ITB inst accesses
system.cpu2.dtb.stage2_mmu.stage2_tlb.inst_hits            0                       # ITB inst hits
system.cpu2.dtb.stage2_mmu.stage2_tlb.inst_misses            0                       # ITB inst misses
system.cpu2.dtb.stage2_mmu.stage2_tlb.misses            0                       # DTB misses
system.cpu2.dtb.stage2_mmu.stage2_tlb.perms_faults            0                       # Number of TLB faults due to permissions restrictions
system.cpu2.dtb.stage2_mmu.stage2_tlb.prefetch_faults            0                       # Number of TLB faults due to prefetch
system.cpu2.dtb.stage2_mmu.stage2_tlb.read_accesses            0                       # DTB read accesses
system.cpu2.dtb.stage2_mmu.stage2_tlb.read_hits            0                       # DTB read hits
system.cpu2.dtb.stage2_mmu.stage2_tlb.read_misses            0                       # DTB read misses
system.cpu2.dtb.stage2_mmu.stage2_tlb.walker.walkRequestOrigin_Requested::Data            0                       # Table walker requests started/completed, data/inst
system.cpu2.dtb.stage2_mmu.stage2_tlb.walker.walkRequestOrigin_Requested::Inst            0                       # Table walker requests started/completed, data/inst
system.cpu2.dtb.stage2_mmu.stage2_tlb.walker.walkRequestOrigin_Requested::total            0                       # Table walker requests started/completed, data/inst
system.cpu2.dtb.stage2_mmu.stage2_tlb.walker.walkRequestOrigin_Completed::Data            0                       # Table walker requests started/completed, data/inst
system.cpu2.dtb.stage2_mmu.stage2_tlb.walker.walkRequestOrigin_Completed::Inst            0                       # Table walker requests started/completed, data/inst
system.cpu2.dtb.stage2_mmu.stage2_tlb.walker.walkRequestOrigin_Completed::total            0                       # Table walker requests started/completed, data/inst
system.cpu2.dtb.stage2_mmu.stage2_tlb.walker.walkRequestOrigin::total            0                       # Table walker requests started/completed, data/inst
system.cpu2.dtb.stage2_mmu.stage2_tlb.walker.walks            0                       # Table walker walks requested
system.cpu2.dtb.stage2_mmu.stage2_tlb.write_accesses            0                       # DTB write accesses
system.cpu2.dtb.stage2_mmu.stage2_tlb.write_hits            0                       # DTB write hits
system.cpu2.dtb.stage2_mmu.stage2_tlb.write_misses            0                       # DTB write misses
system.cpu2.dtb.walker.walkRequestOrigin_Requested::Data            0                       # Table walker requests started/completed, data/inst
system.cpu2.dtb.walker.walkRequestOrigin_Requested::Inst            0                       # Table walker requests started/completed, data/inst
system.cpu2.dtb.walker.walkRequestOrigin_Requested::total            0                       # Table walker requests started/completed, data/inst
system.cpu2.dtb.walker.walkRequestOrigin_Completed::Data            0                       # Table walker requests started/completed, data/inst
system.cpu2.dtb.walker.walkRequestOrigin_Completed::Inst            0                       # Table walker requests started/completed, data/inst
system.cpu2.dtb.walker.walkRequestOrigin_Completed::total            0                       # Table walker requests started/completed, data/inst
system.cpu2.dtb.walker.walkRequestOrigin::total            0                       # Table walker requests started/completed, data/inst
system.cpu2.dtb.walker.walks                        0                       # Table walker walks requested
system.cpu2.dtb.write_accesses                      0                       # DTB write accesses
system.cpu2.dtb.write_hits                          0                       # DTB write hits
system.cpu2.dtb.write_misses                        0                       # DTB write misses
system.cpu2.fetch2.amo_instructions                 0                       # Number of memory atomic instructions successfully decoded
system.cpu2.fetch2.fp_instructions                  0                       # Number of floating point instructions successfully decoded
system.cpu2.fetch2.int_instructions                 0                       # Number of integer instructions successfully decoded
system.cpu2.fetch2.load_instructions                0                       # Number of memory load instructions successfully decoded
system.cpu2.fetch2.store_instructions               0                       # Number of memory store instructions successfully decoded
system.cpu2.fetch2.vec_instructions                 0                       # Number of SIMD instructions successfully decoded
system.cpu2.idleCycles                              0                       # Total number of cycles that the object has spent stopped
system.cpu2.ipc                                   nan                       # IPC: instructions per cycle
system.cpu2.itb.accesses                            0                       # DTB accesses
system.cpu2.itb.align_faults                        0                       # Number of TLB faults due to alignment restrictions
system.cpu2.itb.domain_faults                       0                       # Number of TLB faults due to domain restrictions
system.cpu2.itb.flush_entries                       0                       # Number of entries that have been flushed from TLB
system.cpu2.itb.flush_tlb                           0                       # Number of times complete TLB was flushed
system.cpu2.itb.flush_tlb_asid                      0                       # Number of times TLB was flushed by ASID
system.cpu2.itb.flush_tlb_mva                       0                       # Number of times TLB was flushed by MVA
system.cpu2.itb.flush_tlb_mva_asid                  0                       # Number of times TLB was flushed by MVA & ASID
system.cpu2.itb.hits                                0                       # DTB hits
system.cpu2.itb.inst_accesses                       0                       # ITB inst accesses
system.cpu2.itb.inst_hits                           0                       # ITB inst hits
system.cpu2.itb.inst_misses                         0                       # ITB inst misses
system.cpu2.itb.misses                              0                       # DTB misses
system.cpu2.itb.perms_faults                        0                       # Number of TLB faults due to permissions restrictions
system.cpu2.itb.prefetch_faults                     0                       # Number of TLB faults due to prefetch
system.cpu2.itb.read_accesses                       0                       # DTB read accesses
system.cpu2.itb.read_hits                           0                       # DTB read hits
system.cpu2.itb.read_misses                         0                       # DTB read misses
system.cpu2.itb.stage2_mmu.stage2_tlb.accesses            0                       # DTB accesses
system.cpu2.itb.stage2_mmu.stage2_tlb.align_faults            0                       # Number of TLB faults due to alignment restrictions
system.cpu2.itb.stage2_mmu.stage2_tlb.domain_faults            0                       # Number of TLB faults due to domain restrictions
system.cpu2.itb.stage2_mmu.stage2_tlb.flush_entries            0                       # Number of entries that have been flushed from TLB
system.cpu2.itb.stage2_mmu.stage2_tlb.flush_tlb            0                       # Number of times complete TLB was flushed
system.cpu2.itb.stage2_mmu.stage2_tlb.flush_tlb_asid            0                       # Number of times TLB was flushed by ASID
system.cpu2.itb.stage2_mmu.stage2_tlb.flush_tlb_mva            0                       # Number of times TLB was flushed by MVA
system.cpu2.itb.stage2_mmu.stage2_tlb.flush_tlb_mva_asid            0                       # Number of times TLB was flushed by MVA & ASID
system.cpu2.itb.stage2_mmu.stage2_tlb.hits            0                       # DTB hits
system.cpu2.itb.stage2_mmu.stage2_tlb.inst_accesses            0                       # ITB inst accesses
system.cpu2.itb.stage2_mmu.stage2_tlb.inst_hits            0                       # ITB inst hits
system.cpu2.itb.stage2_mmu.stage2_tlb.inst_misses            0                       # ITB inst misses
system.cpu2.itb.stage2_mmu.stage2_tlb.misses            0                       # DTB misses
system.cpu2.itb.stage2_mmu.stage2_tlb.perms_faults            0                       # Number of TLB faults due to permissions restrictions
system.cpu2.itb.stage2_mmu.stage2_tlb.prefetch_faults            0                       # Number of TLB faults due to prefetch
system.cpu2.itb.stage2_mmu.stage2_tlb.read_accesses            0                       # DTB read accesses
system.cpu2.itb.stage2_mmu.stage2_tlb.read_hits            0                       # DTB read hits
system.cpu2.itb.stage2_mmu.stage2_tlb.read_misses            0                       # DTB read misses
system.cpu2.itb.stage2_mmu.stage2_tlb.walker.walkRequestOrigin_Requested::Data            0                       # Table walker requests started/completed, data/inst
system.cpu2.itb.stage2_mmu.stage2_tlb.walker.walkRequestOrigin_Requested::Inst            0                       # Table walker requests started/completed, data/inst
system.cpu2.itb.stage2_mmu.stage2_tlb.walker.walkRequestOrigin_Requested::total            0                       # Table walker requests started/completed, data/inst
system.cpu2.itb.stage2_mmu.stage2_tlb.walker.walkRequestOrigin_Completed::Data            0                       # Table walker requests started/completed, data/inst
system.cpu2.itb.stage2_mmu.stage2_tlb.walker.walkRequestOrigin_Completed::Inst            0                       # Table walker requests started/completed, data/inst
system.cpu2.itb.stage2_mmu.stage2_tlb.walker.walkRequestOrigin_Completed::total            0                       # Table walker requests started/completed, data/inst
system.cpu2.itb.stage2_mmu.stage2_tlb.walker.walkRequestOrigin::total            0                       # Table walker requests started/completed, data/inst
system.cpu2.itb.stage2_mmu.stage2_tlb.walker.walks            0                       # Table walker walks requested
system.cpu2.itb.stage2_mmu.stage2_tlb.write_accesses            0                       # DTB write accesses
system.cpu2.itb.stage2_mmu.stage2_tlb.write_hits            0                       # DTB write hits
system.cpu2.itb.stage2_mmu.stage2_tlb.write_misses            0                       # DTB write misses
system.cpu2.itb.walker.walkRequestOrigin_Requested::Data            0                       # Table walker requests started/completed, data/inst
system.cpu2.itb.walker.walkRequestOrigin_Requested::Inst            0                       # Table walker requests started/completed, data/inst
system.cpu2.itb.walker.walkRequestOrigin_Requested::total            0                       # Table walker requests started/completed, data/inst
system.cpu2.itb.walker.walkRequestOrigin_Completed::Data            0                       # Table walker requests started/completed, data/inst
system.cpu2.itb.walker.walkRequestOrigin_Completed::Inst            0                       # Table walker requests started/completed, data/inst
system.cpu2.itb.walker.walkRequestOrigin_Completed::total            0                       # Table walker requests started/completed, data/inst
system.cpu2.itb.walker.walkRequestOrigin::total            0                       # Table walker requests started/completed, data/inst
system.cpu2.itb.walker.walks                        0                       # Table walker walks requested
system.cpu2.itb.write_accesses                      0                       # DTB write accesses
system.cpu2.itb.write_hits                          0                       # DTB write hits
system.cpu2.itb.write_misses                        0                       # DTB write misses
system.cpu2.kern.inst.arm                           0                       # number of arm instructions executed
system.cpu2.kern.inst.quiesce                       0                       # number of quiesce instructions executed
system.cpu2.numCycles                               0                       # number of cpu cycles simulated
system.cpu2.numFetchSuspends                        0                       # Number of times Execute suspended instruction fetching
system.cpu2.numWorkItemsCompleted                   0                       # number of work items this cpu completed
system.cpu2.numWorkItemsStarted                     0                       # number of work items this cpu started
system.cpu2.op_class_0::No_OpClass                  0                       # Class of committed instruction
system.cpu2.op_class_0::IntAlu                      0                       # Class of committed instruction
system.cpu2.op_class_0::IntMult                     0                       # Class of committed instruction
system.cpu2.op_class_0::IntDiv                      0                       # Class of committed instruction
system.cpu2.op_class_0::FloatAdd                    0                       # Class of committed instruction
system.cpu2.op_class_0::FloatCmp                    0                       # Class of committed instruction
system.cpu2.op_class_0::FloatCvt                    0                       # Class of committed instruction
system.cpu2.op_class_0::FloatMult                   0                       # Class of committed instruction
system.cpu2.op_class_0::FloatMultAcc                0                       # Class of committed instruction
system.cpu2.op_class_0::FloatDiv                    0                       # Class of committed instruction
system.cpu2.op_class_0::FloatMisc                   0                       # Class of committed instruction
system.cpu2.op_class_0::FloatSqrt                   0                       # Class of committed instruction
system.cpu2.op_class_0::SimdAdd                     0                       # Class of committed instruction
system.cpu2.op_class_0::SimdAddAcc                  0                       # Class of committed instruction
system.cpu2.op_class_0::SimdAlu                     0                       # Class of committed instruction
system.cpu2.op_class_0::SimdCmp                     0                       # Class of committed instruction
system.cpu2.op_class_0::SimdCvt                     0                       # Class of committed instruction
system.cpu2.op_class_0::SimdMisc                    0                       # Class of committed instruction
system.cpu2.op_class_0::SimdMult                    0                       # Class of committed instruction
system.cpu2.op_class_0::SimdMultAcc                 0                       # Class of committed instruction
system.cpu2.op_class_0::SimdShift                   0                       # Class of committed instruction
system.cpu2.op_class_0::SimdShiftAcc                0                       # Class of committed instruction
system.cpu2.op_class_0::SimdDiv                     0                       # Class of committed instruction
system.cpu2.op_class_0::SimdSqrt                    0                       # Class of committed instruction
system.cpu2.op_class_0::SimdFloatAdd                0                       # Class of committed instruction
system.cpu2.op_class_0::SimdFloatAlu                0                       # Class of committed instruction
system.cpu2.op_class_0::SimdFloatCmp                0                       # Class of committed instruction
system.cpu2.op_class_0::SimdFloatCvt                0                       # Class of committed instruction
system.cpu2.op_class_0::SimdFloatDiv                0                       # Class of committed instruction
system.cpu2.op_class_0::SimdFloatMisc               0                       # Class of committed instruction
system.cpu2.op_class_0::SimdFloatMult               0                       # Class of committed instruction
system.cpu2.op_class_0::SimdFloatMultAcc            0                       # Class of committed instruction
system.cpu2.op_class_0::SimdFloatSqrt               0                       # Class of committed instruction
system.cpu2.op_class_0::SimdReduceAdd               0                       # Class of committed instruction
system.cpu2.op_class_0::SimdReduceAlu               0                       # Class of committed instruction
system.cpu2.op_class_0::SimdReduceCmp               0                       # Class of committed instruction
system.cpu2.op_class_0::SimdFloatReduceAdd            0                       # Class of committed instruction
system.cpu2.op_class_0::SimdFloatReduceCmp            0                       # Class of committed instruction
system.cpu2.op_class_0::SimdAes                     0                       # Class of committed instruction
system.cpu2.op_class_0::SimdAesMix                  0                       # Class of committed instruction
system.cpu2.op_class_0::SimdSha1Hash                0                       # Class of committed instruction
system.cpu2.op_class_0::SimdSha1Hash2               0                       # Class of committed instruction
system.cpu2.op_class_0::SimdSha256Hash              0                       # Class of committed instruction
system.cpu2.op_class_0::SimdSha256Hash2             0                       # Class of committed instruction
system.cpu2.op_class_0::SimdShaSigma2               0                       # Class of committed instruction
system.cpu2.op_class_0::SimdShaSigma3               0                       # Class of committed instruction
system.cpu2.op_class_0::SimdPredAlu                 0                       # Class of committed instruction
system.cpu2.op_class_0::MemRead                     0                       # Class of committed instruction
system.cpu2.op_class_0::MemWrite                    0                       # Class of committed instruction
system.cpu2.op_class_0::FloatMemRead                0                       # Class of committed instruction
system.cpu2.op_class_0::FloatMemWrite               0                       # Class of committed instruction
system.cpu2.op_class_0::IprAccess                   0                       # Class of committed instruction
system.cpu2.op_class_0::InstPrefetch                0                       # Class of committed instruction
system.cpu2.op_class_0::total                       0                       # Class of committed instruction
system.cpu2.tickCycles                              0                       # Number of cycles that the object actually ticked
system.cpu3.branchPred.BTBCorrect                   0                       # Number of correct BTB predictions (this stat may not work properly.
system.cpu3.branchPred.BTBHitPct                  nan                       # BTB Hit Percentage
system.cpu3.branchPred.BTBHits                      0                       # Number of BTB hits
system.cpu3.branchPred.BTBLookups                   0                       # Number of BTB lookups
system.cpu3.branchPred.RASInCorrect                 0                       # Number of incorrect RAS predictions.
system.cpu3.branchPred.condIncorrect                0                       # Number of conditional branches incorrect
system.cpu3.branchPred.condPredicted                0                       # Number of conditional branches predicted
system.cpu3.branchPred.indirectHits                 0                       # Number of indirect target hits.
system.cpu3.branchPred.indirectLookups              0                       # Number of indirect predictor lookups.
system.cpu3.branchPred.indirectMisses               0                       # Number of indirect misses.
system.cpu3.branchPred.lookups                      0                       # Number of BP lookups
system.cpu3.branchPred.usedRAS                      0                       # Number of times the RAS was used to get a target.
system.cpu3.branchPredindirectMispredicted            0                       # Number of mispredicted indirect branches.
system.cpu3.committedInsts                          0                       # Number of instructions committed
system.cpu3.committedOps                            0                       # Number of ops (including micro ops) committed
system.cpu3.cpi                                   nan                       # CPI: cycles per instruction
system.cpu3.dcache.prefetcher.num_hwpf_issued            0                       # number of hwpf issued
system.cpu3.dcache.prefetcher.pfBufferHit            0                       # number of redundant prefetches already in prefetch queue
system.cpu3.dcache.prefetcher.pfIdentified            0                       # number of prefetch candidates identified
system.cpu3.dcache.prefetcher.pfInCache             0                       # number of redundant prefetches already in cache/mshr dropped
system.cpu3.dcache.prefetcher.pfRemovedFull            0                       # number of prefetches dropped due to prefetch queue size
system.cpu3.dcache.prefetcher.pfSpanPage            0                       # number of prefetches that crossed the page
system.cpu3.discardedOps                            0                       # Number of ops (including micro ops) which were discarded before commit
system.cpu3.dtb.accesses                            0                       # DTB accesses
system.cpu3.dtb.align_faults                        0                       # Number of TLB faults due to alignment restrictions
system.cpu3.dtb.domain_faults                       0                       # Number of TLB faults due to domain restrictions
system.cpu3.dtb.flush_entries                       0                       # Number of entries that have been flushed from TLB
system.cpu3.dtb.flush_tlb                           0                       # Number of times complete TLB was flushed
system.cpu3.dtb.flush_tlb_asid                      0                       # Number of times TLB was flushed by ASID
system.cpu3.dtb.flush_tlb_mva                       0                       # Number of times TLB was flushed by MVA
system.cpu3.dtb.flush_tlb_mva_asid                  0                       # Number of times TLB was flushed by MVA & ASID
system.cpu3.dtb.hits                                0                       # DTB hits
system.cpu3.dtb.inst_accesses                       0                       # ITB inst accesses
[...]
system.cpu1.dtb_walker_cache.tags.avg_refs            1                       # Average number of references to valid blocks.
system.cpu1.dtb_walker_cache.tags.warmup_cycle            0                       # Cycle when the warmup percentage was hit.
system.cpu1.dtb_walker_cache.tags.occ_blocks::.cpu1.dtb.walker           16                       # Average occupied blocks per requestor
system.cpu1.dtb_walker_cache.tags.occ_percent::.cpu1.dtb.walker            1                       # Average percentage of cache occupancy
system.cpu1.dtb_walker_cache.tags.occ_percent::total            1                       # Average percentage of cache occupancy
system.cpu1.dtb_walker_cache.tags.occ_task_id_blocks::1023           16                       # Occupied blocks per task id
system.cpu1.dtb_walker_cache.tags.age_task_id_blocks_1023::1            1                       # Occupied blocks per task id
system.cpu1.dtb_walker_cache.tags.age_task_id_blocks_1023::2            1                       # Occupied blocks per task id
system.cpu1.dtb_walker_cache.tags.age_task_id_blocks_1023::3            9                       # Occupied blocks per task id
system.cpu1.dtb_walker_cache.tags.age_task_id_blocks_1023::4            5                       # Occupied blocks per task id
system.cpu1.dtb_walker_cache.tags.occ_task_id_percent::1023            1                       # Percentage of cache occupancy per task id
system.cpu1.dtb_walker_cache.tags.tag_accesses          521                       # Number of tag accesses
system.cpu1.dtb_walker_cache.tags.data_accesses          521                       # Number of data accesses
system.cpu1.dcache.pwrStateResidencyTicks::UNDEFINED    537603444                       # Cumulative time (in ticks) in various power states
system.cpu1.dcache.demand_hits::.cpu1.data       155554                       # number of demand (read+write) hits
system.cpu1.dcache.demand_hits::total          155554                       # number of demand (read+write) hits
system.cpu1.dcache.overall_hits::.cpu1.data       155554                       # number of overall hits
system.cpu1.dcache.overall_hits::total         155554                       # number of overall hits
system.cpu1.dcache.demand_misses::.cpu1.data          450                       # number of demand (read+write) misses
system.cpu1.dcache.demand_misses::total           450                       # number of demand (read+write) misses
system.cpu1.dcache.overall_misses::.cpu1.data          450                       # number of overall misses
system.cpu1.dcache.overall_misses::total          450                       # number of overall misses
system.cpu1.dcache.demand_miss_latency::.cpu1.data      5670588                       # number of demand (read+write) miss cycles
system.cpu1.dcache.demand_miss_latency::total      5670588                       # number of demand (read+write) miss cycles
system.cpu1.dcache.overall_miss_latency::.cpu1.data      5670588                       # number of overall miss cycles
system.cpu1.dcache.overall_miss_latency::total      5670588                       # number of overall miss cycles
system.cpu1.dcache.demand_accesses::.cpu1.data       156004                       # number of demand (read+write) accesses
system.cpu1.dcache.demand_accesses::total       156004                       # number of demand (read+write) accesses
system.cpu1.dcache.overall_accesses::.cpu1.data       156004                       # number of overall (read+write) accesses
system.cpu1.dcache.overall_accesses::total       156004                       # number of overall (read+write) accesses
system.cpu1.dcache.demand_miss_rate::.cpu1.data     0.002885                       # miss rate for demand accesses
system.cpu1.dcache.demand_miss_rate::total     0.002885                       # miss rate for demand accesses
system.cpu1.dcache.overall_miss_rate::.cpu1.data     0.002885                       # miss rate for overall accesses
system.cpu1.dcache.overall_miss_rate::total     0.002885                       # miss rate for overall accesses
system.cpu1.dcache.demand_avg_miss_latency::.cpu1.data 12601.306667                       # average overall miss latency
system.cpu1.dcache.demand_avg_miss_latency::total 12601.306667                       # average overall miss latency
system.cpu1.dcache.overall_avg_miss_latency::.cpu1.data 12601.306667                       # average overall miss latency
system.cpu1.dcache.overall_avg_miss_latency::total 12601.306667                       # average overall miss latency
system.cpu1.dcache.blocked_cycles::no_mshrs            0                       # number of cycles access was blocked
system.cpu1.dcache.blocked_cycles::no_targets            0                       # number of cycles access was blocked
system.cpu1.dcache.blocked::no_mshrs                0                       # number of cycles access was blocked
system.cpu1.dcache.blocked::no_targets              0                       # number of cycles access was blocked
system.cpu1.dcache.avg_blocked_cycles::no_mshrs          nan                       # average number of cycles each access was blocked
system.cpu1.dcache.avg_blocked_cycles::no_targets          nan                       # average number of cycles each access was blocked
system.cpu1.dcache.unused_prefetches                1                       # number of HardPF blocks evicted w/o reference
system.cpu1.dcache.writebacks::.writebacks          110                       # number of writebacks
system.cpu1.dcache.writebacks::total              110                       # number of writebacks
system.cpu1.dcache.demand_mshr_hits::.cpu1.data          103                       # number of demand (read+write) MSHR hits
system.cpu1.dcache.demand_mshr_hits::total          103                       # number of demand (read+write) MSHR hits
system.cpu1.dcache.overall_mshr_hits::.cpu1.data          103                       # number of overall MSHR hits
system.cpu1.dcache.overall_mshr_hits::total          103                       # number of overall MSHR hits
system.cpu1.dcache.demand_mshr_misses::.cpu1.data          347                       # number of demand (read+write) MSHR misses
system.cpu1.dcache.demand_mshr_misses::total          347                       # number of demand (read+write) MSHR misses
system.cpu1.dcache.overall_mshr_misses::.cpu1.data          347                       # number of overall MSHR misses
system.cpu1.dcache.overall_mshr_misses::.cpu1.dcache.prefetcher            8                       # number of overall MSHR misses
system.cpu1.dcache.overall_mshr_misses::total          355                       # number of overall MSHR misses
system.cpu1.dcache.demand_mshr_miss_latency::.cpu1.data      4073370                       # number of demand (read+write) MSHR miss cycles
system.cpu1.dcache.demand_mshr_miss_latency::total      4073370                       # number of demand (read+write) MSHR miss cycles
system.cpu1.dcache.overall_mshr_miss_latency::.cpu1.data      4073370                       # number of overall MSHR miss cycles
system.cpu1.dcache.overall_mshr_miss_latency::.cpu1.dcache.prefetcher        98521                       # number of overall MSHR miss cycles
system.cpu1.dcache.overall_mshr_miss_latency::total      4171891                       # number of overall MSHR miss cycles
system.cpu1.dcache.demand_mshr_miss_rate::.cpu1.data     0.002224                       # mshr miss rate for demand accesses
system.cpu1.dcache.demand_mshr_miss_rate::total     0.002224                       # mshr miss rate for demand accesses
system.cpu1.dcache.overall_mshr_miss_rate::.cpu1.data     0.002224                       # mshr miss rate for overall accesses
system.cpu1.dcache.overall_mshr_miss_rate::.cpu1.dcache.prefetcher          inf                       # mshr miss rate for overall accesses
system.cpu1.dcache.overall_mshr_miss_rate::total     0.002276                       # mshr miss rate for overall accesses
system.cpu1.dcache.demand_avg_mshr_miss_latency::.cpu1.data 11738.818444                       # average overall mshr miss latency
system.cpu1.dcache.demand_avg_mshr_miss_latency::total 11738.818444                       # average overall mshr miss latency
system.cpu1.dcache.overall_avg_mshr_miss_latency::.cpu1.data 11738.818444                       # average overall mshr miss latency
system.cpu1.dcache.overall_avg_mshr_miss_latency::.cpu1.dcache.prefetcher 12315.125000                       # average overall mshr miss latency
system.cpu1.dcache.overall_avg_mshr_miss_latency::total 11751.805634                       # average overall mshr miss latency
system.cpu1.dcache.replacements                   355                       # number of replacements
system.cpu1.dcache.ReadReq_hits::.cpu1.data        77934                       # number of ReadReq hits
system.cpu1.dcache.ReadReq_hits::total          77934                       # number of ReadReq hits
system.cpu1.dcache.ReadReq_misses::.cpu1.data          364                       # number of ReadReq misses
system.cpu1.dcache.ReadReq_misses::total          364                       # number of ReadReq misses
system.cpu1.dcache.ReadReq_miss_latency::.cpu1.data      4608156                       # number of ReadReq miss cycles
system.cpu1.dcache.ReadReq_miss_latency::total      4608156                       # number of ReadReq miss cycles
system.cpu1.dcache.ReadReq_accesses::.cpu1.data        78298                       # number of ReadReq accesses(hits+misses)
system.cpu1.dcache.ReadReq_accesses::total        78298                       # number of ReadReq accesses(hits+misses)
system.cpu1.dcache.ReadReq_miss_rate::.cpu1.data     0.004649                       # miss rate for ReadReq accesses
system.cpu1.dcache.ReadReq_miss_rate::total     0.004649                       # miss rate for ReadReq accesses
system.cpu1.dcache.ReadReq_avg_miss_latency::.cpu1.data 12659.769231                       # average ReadReq miss latency
system.cpu1.dcache.ReadReq_avg_miss_latency::total 12659.769231                       # average ReadReq miss latency
system.cpu1.dcache.ReadReq_mshr_hits::.cpu1.data           64                       # number of ReadReq MSHR hits
system.cpu1.dcache.ReadReq_mshr_hits::total           64                       # number of ReadReq MSHR hits
system.cpu1.dcache.ReadReq_mshr_misses::.cpu1.data          300                       # number of ReadReq MSHR misses
system.cpu1.dcache.ReadReq_mshr_misses::total          300                       # number of ReadReq MSHR misses
system.cpu1.dcache.ReadReq_mshr_miss_latency::.cpu1.data      3535014                       # number of ReadReq MSHR miss cycles
system.cpu1.dcache.ReadReq_mshr_miss_latency::total      3535014                       # number of ReadReq MSHR miss cycles
system.cpu1.dcache.ReadReq_mshr_miss_rate::.cpu1.data     0.003832                       # mshr miss rate for ReadReq accesses
system.cpu1.dcache.ReadReq_mshr_miss_rate::total     0.003832                       # mshr miss rate for ReadReq accesses
system.cpu1.dcache.ReadReq_avg_mshr_miss_latency::.cpu1.data 11783.380000                       # average ReadReq mshr miss latency
system.cpu1.dcache.ReadReq_avg_mshr_miss_latency::total 11783.380000                       # average ReadReq mshr miss latency
system.cpu1.dcache.WriteReq_hits::.cpu1.data        77620                       # number of WriteReq hits
system.cpu1.dcache.WriteReq_hits::total         77620                       # number of WriteReq hits
system.cpu1.dcache.WriteReq_misses::.cpu1.data           86                       # number of WriteReq misses
system.cpu1.dcache.WriteReq_misses::total           86                       # number of WriteReq misses
system.cpu1.dcache.WriteReq_miss_latency::.cpu1.data      1062432                       # number of WriteReq miss cycles
system.cpu1.dcache.WriteReq_miss_latency::total      1062432                       # number of WriteReq miss cycles
system.cpu1.dcache.WriteReq_accesses::.cpu1.data        77706                       # number of WriteReq accesses(hits+misses)
system.cpu1.dcache.WriteReq_accesses::total        77706                       # number of WriteReq accesses(hits+misses)
system.cpu1.dcache.WriteReq_miss_rate::.cpu1.data     0.001107                       # miss rate for WriteReq accesses
system.cpu1.dcache.WriteReq_miss_rate::total     0.001107                       # miss rate for WriteReq accesses
system.cpu1.dcache.WriteReq_avg_miss_latency::.cpu1.data 12353.860465                       # average WriteReq miss latency
system.cpu1.dcache.WriteReq_avg_miss_latency::total 12353.860465                       # average WriteReq miss latency
system.cpu1.dcache.WriteReq_mshr_hits::.cpu1.data           39                       # number of WriteReq MSHR hits
system.cpu1.dcache.WriteReq_mshr_hits::total           39                       # number of WriteReq MSHR hits
system.cpu1.dcache.WriteReq_mshr_misses::.cpu1.data           47                       # number of WriteReq MSHR misses
system.cpu1.dcache.WriteReq_mshr_misses::total           47                       # number of WriteReq MSHR misses
system.cpu1.dcache.WriteReq_mshr_miss_latency::.cpu1.data       538356                       # number of WriteReq MSHR miss cycles
system.cpu1.dcache.WriteReq_mshr_miss_latency::total       538356                       # number of WriteReq MSHR miss cycles
system.cpu1.dcache.WriteReq_mshr_miss_rate::.cpu1.data     0.000605                       # mshr miss rate for WriteReq accesses
system.cpu1.dcache.WriteReq_mshr_miss_rate::total     0.000605                       # mshr miss rate for WriteReq accesses
system.cpu1.dcache.WriteReq_avg_mshr_miss_latency::.cpu1.data 11454.382979                       # average WriteReq mshr miss latency
system.cpu1.dcache.WriteReq_avg_mshr_miss_latency::total 11454.382979                       # average WriteReq mshr miss latency
system.cpu1.dcache.HardPFReq_mshr_misses::.cpu1.dcache.prefetcher            8                       # number of HardPFReq MSHR misses
system.cpu1.dcache.HardPFReq_mshr_misses::total            8                       # number of HardPFReq MSHR misses
system.cpu1.dcache.HardPFReq_mshr_miss_latency::.cpu1.dcache.prefetcher        98521                       # number of HardPFReq MSHR miss cycles
system.cpu1.dcache.HardPFReq_mshr_miss_latency::total        98521                       # number of HardPFReq MSHR miss cycles
system.cpu1.dcache.HardPFReq_mshr_miss_rate::.cpu1.dcache.prefetcher          inf                       # mshr miss rate for HardPFReq accesses
system.cpu1.dcache.HardPFReq_mshr_miss_rate::total          inf                       # mshr miss rate for HardPFReq accesses
system.cpu1.dcache.HardPFReq_avg_mshr_miss_latency::.cpu1.dcache.prefetcher 12315.125000                       # average HardPFReq mshr miss latency
system.cpu1.dcache.HardPFReq_avg_mshr_miss_latency::total 12315.125000                       # average HardPFReq mshr miss latency
system.cpu1.dcache.LoadLockedReq_hits::.cpu1.data           90                       # number of LoadLockedReq hits
system.cpu1.dcache.LoadLockedReq_hits::total           90                       # number of LoadLockedReq hits
system.cpu1.dcache.LoadLockedReq_accesses::.cpu1.data           90                       # number of LoadLockedReq accesses(hits+misses)
system.cpu1.dcache.LoadLockedReq_accesses::total           90                       # number of LoadLockedReq accesses(hits+misses)
system.cpu1.dcache.StoreCondReq_hits::.cpu1.data           90                       # number of StoreCondReq hits
system.cpu1.dcache.StoreCondReq_hits::total           90                       # number of StoreCondReq hits
system.cpu1.dcache.StoreCondReq_accesses::.cpu1.data           90                       # number of StoreCondReq accesses(hits+misses)
system.cpu1.dcache.StoreCondReq_accesses::total           90                       # number of StoreCondReq accesses(hits+misses)
system.cpu1.dcache.prefetcher.pwrStateResidencyTicks::UNDEFINED    537603444                       # Cumulative time (in ticks) in various power states
system.cpu1.dcache.tags.pwrStateResidencyTicks::UNDEFINED    537603444                       # Cumulative time (in ticks) in various power states
system.cpu1.dcache.tags.tagsinuse                 256                       # Cycle average of tags in use
system.cpu1.dcache.tags.total_refs              88964                       # Total number of references to valid blocks.
system.cpu1.dcache.tags.sampled_refs              355                       # Sample count of references to valid blocks.
system.cpu1.dcache.tags.avg_refs           250.602817                       # Average number of references to valid blocks.
system.cpu1.dcache.tags.warmup_cycle                0                       # Cycle when the warmup percentage was hit.
system.cpu1.dcache.tags.occ_blocks::.cpu1.data   247.803088                       # Average occupied blocks per requestor
system.cpu1.dcache.tags.occ_blocks::.cpu1.dcache.prefetcher     8.196912                       # Average occupied blocks per requestor
system.cpu1.dcache.tags.occ_percent::.cpu1.data     0.967981                       # Average percentage of cache occupancy
system.cpu1.dcache.tags.occ_percent::.cpu1.dcache.prefetcher     0.032019                       # Average percentage of cache occupancy
system.cpu1.dcache.tags.occ_percent::total            1                       # Average percentage of cache occupancy
system.cpu1.dcache.tags.occ_task_id_blocks::1022           10                       # Occupied blocks per task id
system.cpu1.dcache.tags.occ_task_id_blocks::1024          246                       # Occupied blocks per task id
system.cpu1.dcache.tags.age_task_id_blocks_1022::1            4                       # Occupied blocks per task id
system.cpu1.dcache.tags.age_task_id_blocks_1022::2            1                       # Occupied blocks per task id
system.cpu1.dcache.tags.age_task_id_blocks_1022::3            3                       # Occupied blocks per task id
system.cpu1.dcache.tags.age_task_id_blocks_1022::4            2                       # Occupied blocks per task id
system.cpu1.dcache.tags.age_task_id_blocks_1024::0           21                       # Occupied blocks per task id
system.cpu1.dcache.tags.age_task_id_blocks_1024::1           58                       # Occupied blocks per task id
system.cpu1.dcache.tags.age_task_id_blocks_1024::2           48                       # Occupied blocks per task id
system.cpu1.dcache.tags.age_task_id_blocks_1024::3           98                       # Occupied blocks per task id
system.cpu1.dcache.tags.age_task_id_blocks_1024::4           21                       # Occupied blocks per task id
system.cpu1.dcache.tags.occ_task_id_percent::1022     0.039062                       # Percentage of cache occupancy per task id
system.cpu1.dcache.tags.occ_task_id_percent::1024     0.960938                       # Percentage of cache occupancy per task id
system.cpu1.dcache.tags.tag_accesses           312723                       # Number of tag accesses
system.cpu1.dcache.tags.data_accesses          312723                       # Number of data accesses
system.cpu1.itb.walker.pwrStateResidencyTicks::UNDEFINED    537603444                       # Cumulative time (in ticks) in various power states
system.cpu1.itb.stage2_mmu.stage2_tlb.walker.pwrStateResidencyTicks::UNDEFINED    537603444                       # Cumulative time (in ticks) in various power states
system.cpu_clk_domain.clock                       714                       # Clock period in ticks
system.pci_ide.pwrStateResidencyTicks::UNDEFINED    537603444                       # Cumulative time (in ticks) in various power states

---------- End Simulation Statistics   ----------
