
---------- Begin Simulation Statistics ----------
final_tick                               47146878303748648                       # Number of ticks from beginning of simulation (restored from checkpoints and never reset)
host_inst_rate                                 474637                       # Simulator instruction rate (inst/s)
host_mem_usage                                6329640                       # Number of bytes of host memory used
host_op_rate                                   582113                       # Simulator op (including micro ops) rate (op/s)
host_seconds                                    89.37                       # Real time elapsed on the host
host_tick_rate                              543080455                       # Simulator tick rate (ticks/s)
sim_freq                                 1000000000000                       # Frequency of simulated ticks
sim_insts                                    42418811                       # Number of instructions simulated
sim_ops                                      52024073                       # Number of ops (including micro ops) simulated
sim_seconds                                  0.048536                       # Number of seconds simulated
sim_ticks                                 48535731510                       # Number of ticks simulated
system.cpu0.branchPred.BTBCorrect                   0                       # Number of correct BTB predictions (this stat may not work properly.
system.cpu0.branchPred.BTBHitPct            17.522154                       # BTB Hit Percentage
system.cpu0.branchPred.BTBHits                  25705                       # Number of BTB hits
system.cpu0.branchPred.BTBLookups              146700                       # Number of BTB lookups
system.cpu0.branchPred.RASInCorrect              4590                       # Number of incorrect RAS predictions.
system.cpu0.branchPred.condIncorrect            29411                       # Number of conditional branches incorrect
system.cpu0.branchPred.condPredicted            85325                       # Number of conditional branches predicted
system.cpu0.branchPred.indirectHits              2391                       # Number of indirect target hits.
system.cpu0.branchPred.indirectLookups           3504                       # Number of indirect predictor lookups.
system.cpu0.branchPred.indirectMisses            1113                       # Number of indirect misses.
system.cpu0.branchPred.lookups                 203927                       # Number of BP lookups
system.cpu0.branchPred.usedRAS                  55009                       # Number of times the RAS was used to get a target.
system.cpu0.branchPredindirectMispredicted          136                       # Number of mispredicted indirect branches.
system.cpu0.committedInsts                     486888                       # Number of instructions committed
system.cpu0.committedOps                       644295                       # Number of ops (including micro ops) committed
system.cpu0.cpi                              2.216713                       # CPI: cycles per instruction
system.cpu0.dcache.prefetcher.num_hwpf_issued            2                       # number of hwpf issued
system.cpu0.dcache.prefetcher.pfBufferHit            0                       # number of redundant prefetches already in prefetch queue
system.cpu0.dcache.prefetcher.pfIdentified            2                       # number of prefetch candidates identified
system.cpu0.dcache.prefetcher.pfInCache             0                       # number of redundant prefetches already in cache/mshr dropped
system.cpu0.dcache.prefetcher.pfRemovedFull            0                       # number of prefetches dropped due to prefetch queue size
system.cpu0.dcache.prefetcher.pfSpanPage           14                       # number of prefetches that crossed the page
system.cpu0.discardedOps                        97520                       # Number of ops (including micro ops) which were discarded before commit
system.cpu0.dtb.accesses                       236680                       # DTB accesses
system.cpu0.dtb.align_faults                        0                       # Number of TLB faults due to alignment restrictions
system.cpu0.dtb.domain_faults                       0                       # Number of TLB faults due to domain restrictions
system.cpu0.dtb.flush_entries                       0                       # Number of entries that have been flushed from TLB
system.cpu0.dtb.flush_tlb                           0                       # Number of times complete TLB was flushed
system.cpu0.dtb.flush_tlb_asid                      0                       # Number of times TLB was flushed by ASID
system.cpu0.dtb.flush_tlb_mva                       0                       # Number of times TLB was flushed by MVA
system.cpu0.dtb.flush_tlb_mva_asid                  0                       # Number of times TLB was flushed by MVA & ASID
system.cpu0.dtb.hits                           235749                       # DTB hits
system.cpu0.dtb.inst_accesses                       0                       # ITB inst accesses
system.cpu0.dtb.inst_hits                           0                       # ITB inst hits
system.cpu0.dtb.inst_misses                         0                       # ITB inst misses
system.cpu0.dtb.misses                            931                       # DTB misses
system.cpu0.dtb.perms_faults                        5                       # Number of TLB faults due to permissions restrictions
system.cpu0.dtb.prefetch_faults                     5                       # Number of TLB faults due to prefetch
system.cpu0.dtb.read_accesses                  126079                       # DTB read accesses
system.cpu0.dtb.read_hits                      125427                       # DTB read hits
system.cpu0.dtb.read_misses                       652                       # DTB read misses
system.cpu0.dtb.stage2_mmu.stage2_tlb.accesses            0                       # DTB accesses
system.cpu0.dtb.stage2_mmu.stage2_tlb.align_faults            0                       # Number of TLB faults due to alignment restrictions
system.cpu0.dtb.stage2_mmu.stage2_tlb.domain_faults            0                       # Number of TLB faults due to domain restrictions
system.cpu0.dtb.stage2_mmu.stage2_tlb.flush_entries            0                       # Number of entries that have been flushed from TLB
system.cpu0.dtb.stage2_mmu.stage2_tlb.flush_tlb            0                       # Number of times complete TLB was flushed
system.cpu0.dtb.stage2_mmu.stage2_tlb.flush_tlb_asid            0                       # Number of times TLB was flushed by ASID
system.cpu0.dtb.stage2_mmu.stage2_tlb.flush_tlb_mva            0                       # Number of times TLB was flushed by MVA
system.cpu0.dtb.stage2_mmu.stage2_tlb.flush_tlb_mva_asid            0                       # Number of times TLB was flushed by MVA & ASID
system.cpu0.dtb.stage2_mmu.stage2_tlb.hits            0                       # DTB hits
system.cpu0.dtb.stage2_mmu.stage2_tlb.inst_accesses            0                       # ITB inst accesses
system.cpu0.dtb.stage2_mmu.stage2_tlb.inst_hits            0                       # ITB inst hits
system.cpu0.dtb.stage2_mmu.stage2_tlb.inst_misses            0                       # ITB inst misses
system.cpu0.dtb.stage2_mmu.stage2_tlb.misses            0                       # DTB misses
system.cpu0.dtb.stage2_mmu.stage2_tlb.perms_faults            0                       # Number of TLB faults due to permissions restrictions
system.cpu0.dtb.stage2_mmu.stage2_tlb.prefetch_faults            0                       # Number of TLB faults due to prefetch
system.cpu0.dtb.stage2_mmu.stage2_tlb.read_accesses            0                       # DTB read accesses
system.cpu0.dtb.stage2_mmu.stage2_tlb.read_hits            0                       # DTB read hits
system.cpu0.dtb.stage2_mmu.stage2_tlb.read_misses            0                       # DTB read misses
system.cpu0.dtb.stage2_mmu.stage2_tlb.walker.walkRequestOrigin_Requested::Data            0                       # Table walker requests started/completed, data/inst
system.cpu0.dtb.stage2_mmu.stage2_tlb.walker.walkRequestOrigin_Requested::Inst            0                       # Table walker requests started/completed, data/inst
system.cpu0.dtb.stage2_mmu.stage2_tlb.walker.walkRequestOrigin_Requested::total            0                       # Table walker requests started/completed, data/inst
system.cpu0.dtb.stage2_mmu.stage2_tlb.walker.walkRequestOrigin_Completed::Data            0                       # Table walker requests started/completed, data/inst
system.cpu0.dtb.stage2_mmu.stage2_tlb.walker.walkRequestOrigin_Completed::Inst            0                       # Table walker requests started/completed, data/inst
system.cpu0.dtb.stage2_mmu.stage2_tlb.walker.walkRequestOrigin_Completed::total            0                       # Table walker requests started/completed, data/inst
system.cpu0.dtb.stage2_mmu.stage2_tlb.walker.walkRequestOrigin::total            0                       # Table walker requests started/completed, data/inst
system.cpu0.dtb.stage2_mmu.stage2_tlb.walker.walks            0                       # Table walker walks requested
system.cpu0.dtb.stage2_mmu.stage2_tlb.write_accesses            0                       # DTB write accesses
system.cpu0.dtb.stage2_mmu.stage2_tlb.write_hits            0                       # DTB write hits
system.cpu0.dtb.stage2_mmu.stage2_tlb.write_misses            0                       # DTB write misses
system.cpu0.dtb.walker.walkRequestOrigin_Requested::Data          931                       # Table walker requests started/completed, data/inst
system.cpu0.dtb.walker.walkRequestOrigin_Requested::Inst            0                       # Table walker requests started/completed, data/inst
system.cpu0.dtb.walker.walkRequestOrigin_Requested::total          931                       # Table walker requests started/completed, data/inst
system.cpu0.dtb.walker.walkRequestOrigin_Completed::Data            0                       # Table walker requests started/completed, data/inst
system.cpu0.dtb.walker.walkRequestOrigin_Completed::Inst            0                       # Table walker requests started/completed, data/inst
system.cpu0.dtb.walker.walkRequestOrigin_Completed::total            0                       # Table walker requests started/completed, data/inst
system.cpu0.dtb.walker.walkRequestOrigin::total          931                       # Table walker requests started/completed, data/inst
system.cpu0.dtb.walker.walkWaitTime::samples          931                       # Table walker wait (enqueue to first request) latency
system.cpu0.dtb.walker.walkWaitTime::0            931    100.00%    100.00% # Table walker wait (enqueue to first request) latency
system.cpu0.dtb.walker.walkWaitTime::total          931                       # Table walker wait (enqueue to first request) latency
system.cpu0.dtb.walker.walks                      931                       # Table walker walks requested
system.cpu0.dtb.walker.walksLong                  931                       # Table walker walks initiated with long descriptors
system.cpu0.dtb.write_accesses                 110601                       # DTB write accesses
system.cpu0.dtb.write_hits                     110322                       # DTB write hits
system.cpu0.dtb.write_misses                      279                       # DTB write misses
system.cpu0.fetch2.amo_instructions                 0                       # Number of memory atomic instructions successfully decoded
system.cpu0.fetch2.fp_instructions                  0                       # Number of floating point instructions successfully decoded
system.cpu0.fetch2.int_instructions            536903                       # Number of integer instructions successfully decoded
system.cpu0.fetch2.load_instructions           132496                       # Number of memory load instructions successfully decoded
system.cpu0.fetch2.store_instructions           38157                       # Number of memory store instructions successfully decoded
system.cpu0.fetch2.vec_instructions                 0                       # Number of SIMD instructions successfully decoded
system.cpu0.idleCycles                         187384                       # Total number of cycles that the object has spent stopped
system.cpu0.ipc                              0.451118                       # IPC: instructions per cycle
system.cpu0.itb.accesses                       303220                       # DTB accesses
system.cpu0.itb.align_faults                        0                       # Number of TLB faults due to alignment restrictions
system.cpu0.itb.domain_faults                       0                       # Number of TLB faults due to domain restrictions
system.cpu0.itb.flush_entries                       0                       # Number of entries that have been flushed from TLB
system.cpu0.itb.flush_tlb                           0                       # Number of times complete TLB was flushed
system.cpu0.itb.flush_tlb_asid                      0                       # Number of times TLB was flushed by ASID
system.cpu0.itb.flush_tlb_mva                       0                       # Number of times TLB was flushed by MVA
system.cpu0.itb.flush_tlb_mva_asid                  0                       # Number of times TLB was flushed by MVA & ASID
system.cpu0.itb.hits                           303220                       # DTB hits
system.cpu0.itb.inst_accesses                  303220                       # ITB inst accesses
system.cpu0.itb.inst_hits                      303220                       # ITB inst hits
system.cpu0.itb.inst_misses                         0                       # ITB inst misses
system.cpu0.itb.misses                              0                       # DTB misses
system.cpu0.itb.perms_faults                        0                       # Number of TLB faults due to permissions restrictions
system.cpu0.itb.prefetch_faults                     0                       # Number of TLB faults due to prefetch
system.cpu0.itb.read_accesses                       0                       # DTB read accesses
system.cpu0.itb.read_hits                           0                       # DTB read hits
system.cpu0.itb.read_misses                         0                       # DTB read misses
system.cpu0.itb.stage2_mmu.stage2_tlb.accesses            0                       # DTB accesses
system.cpu0.itb.stage2_mmu.stage2_tlb.align_faults            0                       # Number of TLB faults due to alignment restrictions
system.cpu0.itb.stage2_mmu.stage2_tlb.domain_faults            0                       # Number of TLB faults due to domain restrictions
system.cpu0.itb.stage2_mmu.stage2_tlb.flush_entries            0                       # Number of entries that have been flushed from TLB
system.cpu0.itb.stage2_mmu.stage2_tlb.flush_tlb            0                       # Number of times complete TLB was flushed
system.cpu0.itb.stage2_mmu.stage2_tlb.flush_tlb_asid            0                       # Number of times TLB was flushed by ASID
system.cpu0.itb.stage2_mmu.stage2_tlb.flush_tlb_mva            0                       # Number of times TLB was flushed by MVA
system.cpu0.itb.stage2_mmu.stage2_tlb.flush_tlb_mva_asid            0                       # Number of times TLB was flushed by MVA & ASID
system.cpu0.itb.stage2_mmu.stage2_tlb.hits            0                       # DTB hits
system.cpu0.itb.stage2_mmu.stage2_tlb.inst_accesses            0                       # ITB inst accesses
system.cpu0.itb.stage2_mmu.stage2_tlb.inst_hits            0                       # ITB inst hits
system.cpu0.itb.stage2_mmu.stage2_tlb.inst_misses            0                       # ITB inst misses
system.cpu0.itb.stage2_mmu.stage2_tlb.misses            0                       # DTB misses
system.cpu0.itb.stage2_mmu.stage2_tlb.perms_faults            0                       # Number of TLB faults due to permissions restrictions
system.cpu0.itb.stage2_mmu.stage2_tlb.prefetch_faults            0                       # Number of TLB faults due to prefetch
system.cpu0.itb.stage2_mmu.stage2_tlb.read_accesses            0                       # DTB read accesses
system.cpu0.itb.stage2_mmu.stage2_tlb.read_hits            0                       # DTB read hits
system.cpu0.itb.stage2_mmu.stage2_tlb.read_misses            0                       # DTB read misses
system.cpu0.itb.stage2_mmu.stage2_tlb.walker.walkRequestOrigin_Requested::Data            0                       # Table walker requests started/completed, data/inst
system.cpu0.itb.stage2_mmu.stage2_tlb.walker.walkRequestOrigin_Requested::Inst            0                       # Table walker requests started/completed, data/inst
system.cpu0.itb.stage2_mmu.stage2_tlb.walker.walkRequestOrigin_Requested::total            0                       # Table walker requests started/completed, data/inst
system.cpu0.itb.stage2_mmu.stage2_tlb.walker.walkRequestOrigin_Completed::Data            0                       # Table walker requests started/completed, data/inst
system.cpu0.itb.stage2_mmu.stage2_tlb.walker.walkRequestOrigin_Completed::Inst            0                       # Table walker requests started/completed, data/inst
system.cpu0.itb.stage2_mmu.stage2_tlb.walker.walkRequestOrigin_Completed::total            0                       # Table walker requests started/completed, data/inst
system.cpu0.itb.stage2_mmu.stage2_tlb.walker.walkRequestOrigin::total            0                       # Table walker requests started/completed, data/inst
system.cpu0.itb.stage2_mmu.stage2_tlb.walker.walks            0                       # Table walker walks requested
system.cpu0.itb.stage2_mmu.stage2_tlb.write_accesses            0                       # DTB write accesses
system.cpu0.itb.stage2_mmu.stage2_tlb.write_hits            0                       # DTB write hits
system.cpu0.itb.stage2_mmu.stage2_tlb.write_misses            0                       # DTB write misses
system.cpu0.itb.walker.walkRequestOrigin_Requested::Data            0                       # Table walker requests started/completed, data/inst
system.cpu0.itb.walker.walkRequestOrigin_Requested::Inst            0                       # Table walker requests started/completed, data/inst
system.cpu0.itb.walker.walkRequestOrigin_Requested::total            0                       # Table walker requests started/completed, data/inst
system.cpu0.itb.walker.walkRequestOrigin_Completed::Data            0                       # Table walker requests started/completed, data/inst
system.cpu0.itb.walker.walkRequestOrigin_Completed::Inst            0                       # Table walker requests started/completed, data/inst
system.cpu0.itb.walker.walkRequestOrigin_Completed::total            0                       # Table walker requests started/completed, data/inst
system.cpu0.itb.walker.walkRequestOrigin::total            0                       # Table walker requests started/completed, data/inst
system.cpu0.itb.walker.walks                        0                       # Table walker walks requested
system.cpu0.itb.write_accesses                      0                       # DTB write accesses
system.cpu0.itb.write_hits                          0                       # DTB write hits
system.cpu0.itb.write_misses                        0                       # DTB write misses
system.cpu0.kern.inst.arm                           0                       # number of arm instructions executed
system.cpu0.kern.inst.quiesce                     103                       # number of quiesce instructions executed
system.cpu0.numCycles                         1079291                       # number of cpu cycles simulated
system.cpu0.numFetchSuspends                      103                       # Number of times Execute suspended instruction fetching
system.cpu0.numWorkItemsCompleted                   0                       # number of work items this cpu completed
system.cpu0.numWorkItemsStarted                     0                       # number of work items this cpu started
system.cpu0.op_class_0::No_OpClass                  0      0.00%      0.00% # Class of committed instruction
system.cpu0.op_class_0::IntAlu                 422822     65.63%     65.63% # Class of committed instruction
system.cpu0.op_class_0::IntMult                   368      0.06%     65.68% # Class of committed instruction
system.cpu0.op_class_0::IntDiv                     31      0.00%     65.69% # Class of committed instruction
system.cpu0.op_class_0::FloatAdd                    0      0.00%     65.69% # Class of committed instruction
system.cpu0.op_class_0::FloatCmp                    0      0.00%     65.69% # Class of committed instruction
system.cpu0.op_class_0::FloatCvt                    0      0.00%     65.69% # Class of committed instruction
system.cpu0.op_class_0::FloatMult                   0      0.00%     65.69% # Class of committed instruction
system.cpu0.op_class_0::FloatMultAcc                0      0.00%     65.69% # Class of committed instruction
system.cpu0.op_class_0::FloatDiv                    0      0.00%     65.69% # Class of committed instruction
system.cpu0.op_class_0::FloatMisc                   0      0.00%     65.69% # Class of committed instruction
system.cpu0.op_class_0::FloatSqrt                   0      0.00%     65.69% # Class of committed instruction
system.cpu0.op_class_0::SimdAdd                     0      0.00%     65.69% # Class of committed instruction
system.cpu0.op_class_0::SimdAddAcc                  0      0.00%     65.69% # Class of committed instruction
system.cpu0.op_class_0::SimdAlu                     0      0.00%     65.69% # Class of committed instruction
system.cpu0.op_class_0::SimdCmp                     0      0.00%     65.69% # Class of committed instruction
system.cpu0.op_class_0::SimdCvt                     0      0.00%     65.69% # Class of committed instruction
system.cpu0.op_class_0::SimdMisc                    0      0.00%     65.69% # Class of committed instruction
system.cpu0.op_class_0::SimdMult                    0      0.00%     65.69% # Class of committed instruction
system.cpu0.op_class_0::SimdMultAcc                 0      0.00%     65.69% # Class of committed instruction
system.cpu0.op_class_0::SimdShift                   0      0.00%     65.69% # Class of committed instruction
system.cpu0.op_class_0::SimdShiftAcc                0      0.00%     65.69% # Class of committed instruction
system.cpu0.op_class_0::SimdDiv                     0      0.00%     65.69% # Class of committed instruction
system.cpu0.op_class_0::SimdSqrt                    0      0.00%     65.69% # Class of committed instruction
system.cpu0.op_class_0::SimdFloatAdd                0      0.00%     65.69% # Class of committed instruction
system.cpu0.op_class_0::SimdFloatAlu                0      0.00%     65.69% # Class of committed instruction
system.cpu0.op_class_0::SimdFloatCmp                0      0.00%     65.69% # Class of committed instruction
system.cpu0.op_class_0::SimdFloatCvt                0      0.00%     65.69% # Class of committed instruction
system.cpu0.op_class_0::SimdFloatDiv                0      0.00%     65.69% # Class of committed instruction
system.cpu0.op_class_0::SimdFloatMisc               0      0.00%     65.69% # Class of committed instruction
system.cpu0.op_class_0::SimdFloatMult               0      0.00%     65.69% # Class of committed instruction
system.cpu0.op_class_0::SimdFloatMultAcc            0      0.00%     65.69% # Class of committed instruction
system.cpu0.op_class_0::SimdFloatSqrt               0      0.00%     65.69% # Class of committed instruction
system.cpu0.op_class_0::SimdReduceAdd               0      0.00%     65.69% # Class of committed instruction
system.cpu0.op_class_0::SimdReduceAlu               0      0.00%     65.69% # Class of committed instruction
system.cpu0.op_class_0::SimdReduceCmp               0      0.00%     65.69% # Class of committed instruction
system.cpu0.op_class_0::SimdFloatReduceAdd            0      0.00%     65.69% # Class of committed instruction
system.cpu0.op_class_0::SimdFloatReduceCmp            0      0.00%     65.69% # Class of committed instruction
system.cpu0.op_class_0::SimdAes                     0      0.00%     65.69% # Class of committed instruction
system.cpu0.op_class_0::SimdAesMix                  0      0.00%     65.69% # Class of committed instruction
system.cpu0.op_class_0::SimdSha1Hash                0      0.00%     65.69% # Class of committed instruction
system.cpu0.op_class_0::SimdSha1Hash2               0      0.00%     65.69% # Class of committed instruction
system.cpu0.op_class_0::SimdSha256Hash              0      0.00%     65.69% # Class of committed instruction
system.cpu0.op_class_0::SimdSha256Hash2             0      0.00%     65.69% # Class of committed instruction
system.cpu0.op_class_0::SimdShaSigma2               0      0.00%     65.69% # Class of committed instruction
system.cpu0.op_class_0::SimdShaSigma3               0      0.00%     65.69% # Class of committed instruction
system.cpu0.op_class_0::SimdPredAlu                 0      0.00%     65.69% # Class of committed instruction
system.cpu0.op_class_0::MemRead                112179     17.41%     83.10% # Class of committed instruction
system.cpu0.op_class_0::MemWrite               108895     16.90%    100.00% # Class of committed instruction
system.cpu0.op_class_0::FloatMemRead                0      0.00%    100.00% # Class of committed instruction
system.cpu0.op_class_0::FloatMemWrite               0      0.00%    100.00% # Class of committed instruction
system.cpu0.op_class_0::IprAccess                   0      0.00%    100.00% # Class of committed instruction
system.cpu0.op_class_0::InstPrefetch                0      0.00%    100.00% # Class of committed instruction
system.cpu0.op_class_0::total                  644295                       # Class of committed instruction
system.cpu0.quiesceCycles                    64709834                       # Total number of cycles that CPU has spent quiesced or waiting for an interrupt
system.cpu0.tickCycles                         891907                       # Number of cycles that the object actually ticked
system.cpu1.branchPred.BTBCorrect                   0                       # Number of correct BTB predictions (this stat may not work properly.
system.cpu1.branchPred.BTBHitPct            16.647478                       # BTB Hit Percentage
system.cpu1.branchPred.BTBHits                   8965                       # Number of BTB hits
system.cpu1.branchPred.BTBLookups               53852                       # Number of BTB lookups
system.cpu1.branchPred.RASInCorrect              1067                       # Number of incorrect RAS predictions.
system.cpu1.branchPred.condIncorrect            10631                       # Number of conditional branches incorrect
system.cpu1.branchPred.condPredicted            33929                       # Number of conditional branches predicted
system.cpu1.branchPred.indirectHits               765                       # Number of indirect target hits.
system.cpu1.branchPred.indirectLookups           1188                       # Number of indirect predictor lookups.
system.cpu1.branchPred.indirectMisses             423                       # Number of indirect misses.
system.cpu1.branchPred.lookups                  70796                       # Number of BP lookups
system.cpu1.branchPred.usedRAS                  15359                       # Number of times the RAS was used to get a target.
system.cpu1.branchPredindirectMispredicted          151                       # Number of mispredicted indirect branches.
system.cpu1.committedInsts                     162793                       # Number of instructions committed
system.cpu1.committedOps                       207081                       # Number of ops (including micro ops) committed
system.cpu1.cpi                              1.823530                       # CPI: cycles per instruction
system.cpu1.dcache.prefetcher.num_hwpf_issued           10                       # number of hwpf issued
system.cpu1.dcache.prefetcher.pfBufferHit            0                       # number of redundant prefetches already in prefetch queue
system.cpu1.dcache.prefetcher.pfIdentified           10                       # number of prefetch candidates identified
system.cpu1.dcache.prefetcher.pfInCache             0                       # number of redundant prefetches already in cache/mshr dropped
system.cpu1.dcache.prefetcher.pfRemovedFull            0                       # number of prefetches dropped due to prefetch queue size
system.cpu1.dcache.prefetcher.pfSpanPage           10                       # number of prefetches that crossed the page
system.cpu1.discardedOps                        33873                       # Number of ops (including micro ops) which were discarded before commit
system.cpu1.dtb.accesses                        79466                       # DTB accesses
system.cpu1.dtb.align_faults                        0                       # Number of TLB faults due to alignment restrictions
system.cpu1.dtb.domain_faults                       0                       # Number of TLB faults due to domain restrictions
system.cpu1.dtb.flush_entries                       0                       # Number of entries that have been flushed from TLB
system.cpu1.dtb.flush_tlb                           0                       # Number of times complete TLB was flushed
system.cpu1.dtb.flush_tlb_asid                      0                       # Number of times TLB was flushed by ASID
system.cpu1.dtb.flush_tlb_mva                       0                       # Number of times TLB was flushed by MVA
system.cpu1.dtb.flush_tlb_mva_asid                  0                       # Number of times TLB was flushed by MVA & ASID
system.cpu1.dtb.hits                            78955                       # DTB hits
system.cpu1.dtb.inst_accesses                       0                       # ITB inst accesses
system.cpu1.dtb.inst_hits                           0                       # ITB inst hits
system.cpu1.dtb.inst_misses                         0                       # ITB inst misses
system.cpu1.dtb.misses                            511                       # DTB misses
system.cpu1.dtb.perms_faults                       10                       # Number of TLB faults due to permissions restrictions
system.cpu1.dtb.prefetch_faults                    12                       # Number of TLB faults due to prefetch
system.cpu1.dtb.read_accesses                   44281                       # DTB read accesses
system.cpu1.dtb.read_hits                       43849                       # DTB read hits
system.cpu1.dtb.read_misses                       432                       # DTB read misses
system.cpu1.dtb.stage2_mmu.stage2_tlb.accesses            0                       # DTB accesses
system.cpu1.dtb.stage2_mmu.stage2_tlb.align_faults            0                       # Number of TLB faults due to alignment restrictions
system.cpu1.dtb.stage2_mmu.stage2_tlb.domain_faults            0                       # Number of TLB faults due to domain restrictions
system.cpu1.dtb.stage2_mmu.stage2_tlb.flush_entries            0                       # Number of entries that have been flushed from TLB
system.cpu1.dtb.stage2_mmu.stage2_tlb.flush_tlb            0                       # Number of times complete TLB was flushed
system.cpu1.dtb.stage2_mmu.stage2_tlb.flush_tlb_asid            0                       # Number of times TLB was flushed by ASID
system.cpu1.dtb.stage2_mmu.stage2_tlb.flush_tlb_mva            0                       # Number of times TLB was flushed by MVA
system.cpu1.dtb.stage2_mmu.stage2_tlb.flush_tlb_mva_asid            0                       # Number of times TLB was flushed by MVA & ASID
system.cpu1.dtb.stage2_mmu.stage2_tlb.hits            0                       # DTB hits
system.cpu1.dtb.stage2_mmu.stage2_tlb.inst_accesses            0                       # ITB inst accesses
system.cpu1.dtb.stage2_mmu.stage2_tlb.inst_hits            0                       # ITB inst hits
system.cpu1.dtb.stage2_mmu.stage2_tlb.inst_misses            0                       # ITB inst misses
system.cpu1.dtb.stage2_mmu.stage2_tlb.misses            0                       # DTB misses
system.cpu1.dtb.stage2_mmu.stage2_tlb.perms_faults            0                       # Number of TLB faults due to permissions restrictions
system.cpu1.dtb.stage2_mmu.stage2_tlb.prefetch_faults            0                       # Number of TLB faults due to prefetch
system.cpu1.dtb.stage2_mmu.stage2_tlb.read_accesses            0                       # DTB read accesses
system.cpu1.dtb.stage2_mmu.stage2_tlb.read_hits            0                       # DTB read hits
system.cpu1.dtb.stage2_mmu.stage2_tlb.read_misses            0                       # DTB read misses
system.cpu1.dtb.stage2_mmu.stage2_tlb.walker.walkRequestOrigin_Requested::Data            0                       # Table walker requests started/completed, data/inst
system.cpu1.dtb.stage2_mmu.stage2_tlb.walker.walkRequestOrigin_Requested::Inst            0                       # Table walker requests started/completed, data/inst
system.cpu1.dtb.stage2_mmu.stage2_tlb.walker.walkRequestOrigin_Requested::total            0                       # Table walker requests started/completed, data/inst
system.cpu1.dtb.stage2_mmu.stage2_tlb.walker.walkRequestOrigin_Completed::Data            0                       # Table walker requests started/completed, data/inst
system.cpu1.dtb.stage2_mmu.stage2_tlb.walker.walkRequestOrigin_Completed::Inst            0                       # Table walker requests started/completed, data/inst
system.cpu1.dtb.stage2_mmu.stage2_tlb.walker.walkRequestOrigin_Completed::total            0                       # Table walker requests started/completed, data/inst
system.cpu1.dtb.stage2_mmu.stage2_tlb.walker.walkRequestOrigin::total            0                       # Table walker requests started/completed, data/inst
system.cpu1.dtb.stage2_mmu.stage2_tlb.walker.walks            0                       # Table walker walks requested
system.cpu1.dtb.stage2_mmu.stage2_tlb.write_accesses            0                       # DTB write accesses
system.cpu1.dtb.stage2_mmu.stage2_tlb.write_hits            0                       # DTB write hits
system.cpu1.dtb.stage2_mmu.stage2_tlb.write_misses            0                       # DTB write misses
system.cpu1.dtb.walker.walkCompletionTime::samples            6                       # Table walker service (enqueue to completion) latency
system.cpu1.dtb.walker.walkCompletionTime::mean        25704                       # Table walker service (enqueue to completion) latency
system.cpu1.dtb.walker.walkCompletionTime::gmean 25664.302679                       # Table walker service (enqueue to completion) latency
system.cpu1.dtb.walker.walkCompletionTime::stdev  1564.295624                       # Table walker service (enqueue to completion) latency
system.cpu1.dtb.walker.walkCompletionTime::22528-24575            3     50.00%     50.00% # Table walker service (enqueue to completion) latency
system.cpu1.dtb.walker.walkCompletionTime::26624-28671            3     50.00%    100.00% # Table walker service (enqueue to completion) latency
system.cpu1.dtb.walker.walkCompletionTime::total            6                       # Table walker service (enqueue to completion) latency
system.cpu1.dtb.walker.walkPageSizes::4K            6    100.00%    100.00% # Table walker page sizes translated
system.cpu1.dtb.walker.walkPageSizes::total            6                       # Table walker page sizes translated
system.cpu1.dtb.walker.walkRequestOrigin_Requested::Data          511                       # Table walker requests started/completed, data/inst
system.cpu1.dtb.walker.walkRequestOrigin_Requested::Inst            0                       # Table walker requests started/completed, data/inst
system.cpu1.dtb.walker.walkRequestOrigin_Requested::total          511                       # Table walker requests started/completed, data/inst
system.cpu1.dtb.walker.walkRequestOrigin_Completed::Data            6                       # Table walker requests started/completed, data/inst
system.cpu1.dtb.walker.walkRequestOrigin_Completed::Inst            0                       # Table walker requests started/completed, data/inst
system.cpu1.dtb.walker.walkRequestOrigin_Completed::total            6                       # Table walker requests started/completed, data/inst
system.cpu1.dtb.walker.walkRequestOrigin::total          517                       # Table walker requests started/completed, data/inst
system.cpu1.dtb.walker.walkWaitTime::samples          511                       # Table walker wait (enqueue to first request) latency
system.cpu1.dtb.walker.walkWaitTime::0            511    100.00%    100.00% # Table walker wait (enqueue to first request) latency
system.cpu1.dtb.walker.walkWaitTime::total          511                       # Table walker wait (enqueue to first request) latency
system.cpu1.dtb.walker.walks                      511                       # Table walker walks requested
system.cpu1.dtb.walker.walksLong                  511                       # Table walker walks initiated with long descriptors
system.cpu1.dtb.walker.walksLongTerminationLevel::Level3            6                       # Level at which table walker walks with long descriptors terminate
system.cpu1.dtb.write_accesses                  35185                       # DTB write accesses
system.cpu1.dtb.write_hits                      35106                       # DTB write hits
system.cpu1.dtb.write_misses                       79                       # DTB write misses
system.cpu1.fetch2.amo_instructions                 0                       # Number of memory atomic instructions successfully decoded
system.cpu1.fetch2.fp_instructions                  0                       # Number of floating point instructions successfully decoded
system.cpu1.fetch2.int_instructions            179634                       # Number of integer instructions successfully decoded
system.cpu1.fetch2.load_instructions            52473                       # Number of memory load instructions successfully decoded
system.cpu1.fetch2.store_instructions           17331                       # Number of memory store instructions successfully decoded
system.cpu1.fetch2.vec_instructions                 0                       # Number of SIMD instructions successfully decoded
system.cpu1.idleCycles                           3974                       # Total number of cycles that the object has spent stopped
system.cpu1.ipc                              0.548387                       # IPC: instructions per cycle
system.cpu1.itb.accesses                        97707                       # DTB accesses
system.cpu1.itb.align_faults                        0                       # Number of TLB faults due to alignment restrictions
system.cpu1.itb.domain_faults                       0                       # Number of TLB faults due to domain restrictions
system.cpu1.itb.flush_entries                       0                       # Number of entries that have been flushed from TLB
system.cpu1.itb.flush_tlb                           0                       # Number of times complete TLB was flushed
system.cpu1.itb.flush_tlb_asid                      0                       # Number of times TLB was flushed by ASID
system.cpu1.itb.flush_tlb_mva                       0                       # Number of times TLB was flushed by MVA
system.cpu1.itb.flush_tlb_mva_asid                  0                       # Number of times TLB was flushed by MVA & ASID
system.cpu1.itb.hits                            97700                       # DTB hits
system.cpu1.itb.inst_accesses                   97707                       # ITB inst accesses
system.cpu1.itb.inst_hits                       97700                       # ITB inst hits
system.cpu1.itb.inst_misses                         7                       # ITB inst misses
system.cpu1.itb.misses                              7                       # DTB misses
system.cpu1.itb.perms_faults                        0                       # Number of TLB faults due to permissions restrictions
system.cpu1.itb.prefetch_faults                     0                       # Number of TLB faults due to prefetch
system.cpu1.itb.read_accesses                       0                       # DTB read accesses
system.cpu1.itb.read_hits                           0                       # DTB read hits
system.cpu1.itb.read_misses                         0                       # DTB read misses
system.cpu1.itb.stage2_mmu.stage2_tlb.accesses            0                       # DTB accesses
system.cpu1.itb.stage2_mmu.stage2_tlb.align_faults            0                       # Number of TLB faults due to alignment restrictions
system.cpu1.itb.stage2_mmu.stage2_tlb.domain_faults            0                       # Number of TLB faults due to domain restrictions
system.cpu1.itb.stage2_mmu.stage2_tlb.flush_entries            0                       # Number of entries that have been flushed from TLB
system.cpu1.itb.stage2_mmu.stage2_tlb.flush_tlb            0                       # Number of times complete TLB was flushed
system.cpu1.itb.stage2_mmu.stage2_tlb.flush_tlb_asid            0                       # Number of times TLB was flushed by ASID
system.cpu1.itb.stage2_mmu.stage2_tlb.flush_tlb_mva            0                       # Number of times TLB was flushed by MVA
system.cpu1.itb.stage2_mmu.stage2_tlb.flush_tlb_mva_asid            0                       # Number of times TLB was flushed by MVA & ASID
system.cpu1.itb.stage2_mmu.stage2_tlb.hits            0                       # DTB hits
system.cpu1.itb.stage2_mmu.stage2_tlb.inst_accesses            0                       # ITB inst accesses
system.cpu1.itb.stage2_mmu.stage2_tlb.inst_hits            0                       # ITB inst hits
system.cpu1.itb.stage2_mmu.stage2_tlb.inst_misses            0                       # ITB inst misses
system.cpu1.itb.stage2_mmu.stage2_tlb.misses            0                       # DTB misses
system.cpu1.itb.stage2_mmu.stage2_tlb.perms_faults            0                       # Number of TLB faults due to permissions restrictions
system.cpu1.itb.stage2_mmu.stage2_tlb.prefetch_faults            0                       # Number of TLB faults due to prefetch
system.cpu1.itb.stage2_mmu.stage2_tlb.read_accesses            0                       # DTB read accesses
system.cpu1.itb.stage2_mmu.stage2_tlb.read_hits            0                       # DTB read hits
system.cpu1.itb.stage2_mmu.stage2_tlb.read_misses            0                       # DTB read misses
system.cpu1.itb.stage2_mmu.stage2_tlb.walker.walkRequestOrigin_Requested::Data            0                       # Table walker requests started/completed, data/inst
system.cpu1.itb.stage2_mmu.stage2_tlb.walker.walkRequestOrigin_Requested::Inst            0                       # Table walker requests started/completed, data/inst
system.cpu1.itb.stage2_mmu.stage2_tlb.walker.walkRequestOrigin_Requested::total            0                       # Table walker requests started/completed, data/inst
system.cpu1.itb.stage2_mmu.stage2_tlb.walker.walkRequestOrigin_Completed::Data            0                       # Table walker requests started/completed, data/inst
system.cpu1.itb.stage2_mmu.stage2_tlb.walker.walkRequestOrigin_Completed::Inst            0                       # Table walker requests started/completed, data/inst
system.cpu1.itb.stage2_mmu.stage2_tlb.walker.walkRequestOrigin_Completed::total            0                       # Table walker requests started/completed, data/inst
system.cpu1.itb.stage2_mmu.stage2_tlb.walker.walkRequestOrigin::total            0                       # Table walker requests started/completed, data/inst
system.cpu1.itb.stage2_mmu.stage2_tlb.walker.walks            0                       # Table walker walks requested
system.cpu1.itb.stage2_mmu.stage2_tlb.write_accesses            0                       # DTB write accesses
system.cpu1.itb.stage2_mmu.stage2_tlb.write_hits            0                       # DTB write hits
system.cpu1.itb.stage2_mmu.stage2_tlb.write_misses            0                       # DTB write misses
system.cpu1.itb.walker.walkCompletionTime::samples            7                       # Table walker service (enqueue to completion) latency
system.cpu1.itb.walker.walkCompletionTime::mean        19278                       # Table walker service (enqueue to completion) latency
system.cpu1.itb.walker.walkCompletionTime::gmean 17646.942457                       # Table walker service (enqueue to completion) latency
system.cpu1.itb.walker.walkCompletionTime::stdev  8098.996975                       # Table walker service (enqueue to completion) latency
system.cpu1.itb.walker.walkCompletionTime::10240-12287            3     42.86%     42.86% # Table walker service (enqueue to completion) latency
system.cpu1.itb.walker.walkCompletionTime::22528-24575            2     28.57%     71.43% # Table walker service (enqueue to completion) latency
system.cpu1.itb.walker.walkCompletionTime::26624-28671            2     28.57%    100.00% # Table walker service (enqueue to completion) latency
system.cpu1.itb.walker.walkCompletionTime::total            7                       # Table walker service (enqueue to completion) latency
system.cpu1.itb.walker.walkPageSizes::4K            7    100.00%    100.00% # Table walker page sizes translated
system.cpu1.itb.walker.walkPageSizes::total            7                       # Table walker page sizes translated
system.cpu1.itb.walker.walkRequestOrigin_Requested::Data            0                       # Table walker requests started/completed, data/inst
system.cpu1.itb.walker.walkRequestOrigin_Requested::Inst            7                       # Table walker requests started/completed, data/inst
system.cpu1.itb.walker.walkRequestOrigin_Requested::total            7                       # Table walker requests started/completed, data/inst
system.cpu1.itb.walker.walkRequestOrigin_Completed::Data            0                       # Table walker requests started/completed, data/inst
system.cpu1.itb.walker.walkRequestOrigin_Completed::Inst            7                       # Table walker requests started/completed, data/inst
system.cpu1.itb.walker.walkRequestOrigin_Completed::total            7                       # Table walker requests started/completed, data/inst
system.cpu1.itb.walker.walkRequestOrigin::total           14                       # Table walker requests started/completed, data/inst
system.cpu1.itb.walker.walkWaitTime::samples            7                       # Table walker wait (enqueue to first request) latency
system.cpu1.itb.walker.walkWaitTime::0              7    100.00%    100.00% # Table walker wait (enqueue to first request) latency
system.cpu1.itb.walker.walkWaitTime::total            7                       # Table walker wait (enqueue to first request) latency
system.cpu1.itb.walker.walks                        7                       # Table walker walks requested
system.cpu1.itb.walker.walksLong                    7                       # Table walker walks initiated with long descriptors
system.cpu1.itb.walker.walksLongTerminationLevel::Level3            7                       # Level at which table walker walks with long descriptors terminate
system.cpu1.itb.write_accesses                      0                       # DTB write accesses
system.cpu1.itb.write_hits                          0                       # DTB write hits
system.cpu1.itb.write_misses                        0                       # DTB write misses
system.cpu1.kern.inst.arm                           0                       # number of arm instructions executed
system.cpu1.kern.inst.quiesce                      15                       # number of quiesce instructions executed
system.cpu1.numCycles                          296858                       # number of cpu cycles simulated
system.cpu1.numFetchSuspends                       15                       # Number of times Execute suspended instruction fetching
system.cpu1.numWorkItemsCompleted                   0                       # number of work items this cpu completed
system.cpu1.numWorkItemsStarted                     0                       # number of work items this cpu started
system.cpu1.op_class_0::No_OpClass                  0      0.00%      0.00% # Class of committed instruction
system.cpu1.op_class_0::IntAlu                 134121     64.77%     64.77% # Class of committed instruction
system.cpu1.op_class_0::IntMult                   422      0.20%     64.97% # Class of committed instruction
system.cpu1.op_class_0::IntDiv                    127      0.06%     65.03% # Class of committed instruction
system.cpu1.op_class_0::FloatAdd                    0      0.00%     65.03% # Class of committed instruction
system.cpu1.op_class_0::FloatCmp                    0      0.00%     65.03% # Class of committed instruction
system.cpu1.op_class_0::FloatCvt                    0      0.00%     65.03% # Class of committed instruction
system.cpu1.op_class_0::FloatMult                   0      0.00%     65.03% # Class of committed instruction
system.cpu1.op_class_0::FloatMultAcc                0      0.00%     65.03% # Class of committed instruction
system.cpu1.op_class_0::FloatDiv                    0      0.00%     65.03% # Class of committed instruction
system.cpu1.op_class_0::FloatMisc                   0      0.00%     65.03% # Class of committed instruction
system.cpu1.op_class_0::FloatSqrt                   0      0.00%     65.03% # Class of committed instruction
system.cpu1.op_class_0::SimdAdd                     0      0.00%     65.03% # Class of committed instruction
system.cpu1.op_class_0::SimdAddAcc                  0      0.00%     65.03% # Class of committed instruction
system.cpu1.op_class_0::SimdAlu                     0      0.00%     65.03% # Class of committed instruction
system.cpu1.op_class_0::SimdCmp                     0      0.00%     65.03% # Class of committed instruction
system.cpu1.op_class_0::SimdCvt                     0      0.00%     65.03% # Class of committed instruction
system.cpu1.op_class_0::SimdMisc                    0      0.00%     65.03% # Class of committed instruction
system.cpu1.op_class_0::SimdMult                    0      0.00%     65.03% # Class of committed instruction
system.cpu1.op_class_0::SimdMultAcc                 0      0.00%     65.03% # Class of committed instruction
system.cpu1.op_class_0::SimdShift                   0      0.00%     65.03% # Class of committed instruction
system.cpu1.op_class_0::SimdShiftAcc                0      0.00%     65.03% # Class of committed instruction
system.cpu1.op_class_0::SimdDiv                     0      0.00%     65.03% # Class of committed instruction
system.cpu1.op_class_0::SimdSqrt                    0      0.00%     65.03% # Class of committed instruction
system.cpu1.op_class_0::SimdFloatAdd                0      0.00%     65.03% # Class of committed instruction
system.cpu1.op_class_0::SimdFloatAlu                0      0.00%     65.03% # Class of committed instruction
system.cpu1.op_class_0::SimdFloatCmp                0      0.00%     65.03% # Class of committed instruction
system.cpu1.op_class_0::SimdFloatCvt                0      0.00%     65.03% # Class of committed instruction
system.cpu1.op_class_0::SimdFloatDiv                0      0.00%     65.03% # Class of committed instruction
system.cpu1.op_class_0::SimdFloatMisc               0      0.00%     65.03% # Class of committed instruction
system.cpu1.op_class_0::SimdFloatMult               0      0.00%     65.03% # Class of committed instruction
system.cpu1.op_class_0::SimdFloatMultAcc            0      0.00%     65.03% # Class of committed instruction
system.cpu1.op_class_0::SimdFloatSqrt               0      0.00%     65.03% # Class of committed instruction
system.cpu1.op_class_0::SimdReduceAdd               0      0.00%     65.03% # Class of committed instruction
system.cpu1.op_class_0::SimdReduceAlu               0      0.00%     65.03% # Class of committed instruction
system.cpu1.op_class_0::SimdReduceCmp               0      0.00%     65.03% # Class of committed instruction
system.cpu1.op_class_0::SimdFloatReduceAdd            0      0.00%     65.03% # Class of committed instruction
system.cpu1.op_class_0::SimdFloatReduceCmp            0      0.00%     65.03% # Class of committed instruction
system.cpu1.op_class_0::SimdAes                     0      0.00%     65.03% # Class of committed instruction
system.cpu1.op_class_0::SimdAesMix                  0      0.00%     65.03% # Class of committed instruction
system.cpu1.op_class_0::SimdSha1Hash                0      0.00%     65.03% # Class of committed instruction
system.cpu1.op_class_0::SimdSha1Hash2               0      0.00%     65.03% # Class of committed instruction
system.cpu1.op_class_0::SimdSha256Hash              0      0.00%     65.03% # Class of committed instruction
system.cpu1.op_class_0::SimdSha256Hash2             0      0.00%     65.03% # Class of committed instruction
system.cpu1.op_class_0::SimdShaSigma2               0      0.00%     65.03% # Class of committed instruction
system.cpu1.op_class_0::SimdShaSigma3               0      0.00%     65.03% # Class of committed instruction
system.cpu1.op_class_0::SimdPredAlu                 0      0.00%     65.03% # Class of committed instruction
system.cpu1.op_class_0::MemRead                 37875     18.29%     83.32% # Class of committed instruction
system.cpu1.op_class_0::MemWrite                34536     16.68%    100.00% # Class of committed instruction
system.cpu1.op_class_0::FloatMemRead                0      0.00%    100.00% # Class of committed instruction
system.cpu1.op_class_0::FloatMemWrite               0      0.00%    100.00% # Class of committed instruction
system.cpu1.op_class_0::IprAccess                   0      0.00%    100.00% # Class of committed instruction
system.cpu1.op_class_0::InstPrefetch                0      0.00%    100.00% # Class of committed instruction
system.cpu1.op_class_0::total                  207081                       # Class of committed instruction
system.cpu1.quiesceCycles                    61349200                       # Total number of cycles that CPU has spent quiesced or waiting for an interrupt
system.cpu1.tickCycles                         292884                       # Number of cycles that the object actually ticked
system.cpu2.branchPred.BTBCorrect                   0                       # Number of correct BTB predictions (this stat may not work properly.
system.cpu2.branchPred.BTBHitPct            28.497025                       # BTB Hit Percentage
system.cpu2.branchPred.BTBHits                1968479                       # Number of BTB hits
system.cpu2.branchPred.BTBLookups             6907665                       # Number of BTB lookups
system.cpu2.branchPred.RASInCorrect             48939                       # Number of incorrect RAS predictions.
system.cpu2.branchPred.condIncorrect          1057408                       # Number of conditional branches incorrect
system.cpu2.branchPred.condPredicted          5061845                       # Number of conditional branches predicted
system.cpu2.branchPred.indirectHits             28840                       # Number of indirect target hits.
system.cpu2.branchPred.indirectLookups          40300                       # Number of indirect predictor lookups.
system.cpu2.branchPred.indirectMisses           11460                       # Number of indirect misses.
system.cpu2.branchPred.lookups                8646022                       # Number of BP lookups
system.cpu2.branchPred.usedRAS                1402113                       # Number of times the RAS was used to get a target.
system.cpu2.branchPredindirectMispredicted         2081                       # Number of mispredicted indirect branches.
system.cpu2.committedInsts                   24487287                       # Number of instructions committed
system.cpu2.committedOps                     30292612                       # Number of ops (including micro ops) committed
system.cpu2.cpi                              2.776021                       # CPI: cycles per instruction
system.cpu2.dcache.prefetcher.num_hwpf_issued          482                       # number of hwpf issued
system.cpu2.dcache.prefetcher.pfBufferHit          553                       # number of redundant prefetches already in prefetch queue
system.cpu2.dcache.prefetcher.pfIdentified         1721                       # number of prefetch candidates identified
system.cpu2.dcache.prefetcher.pfInCache             0                       # number of redundant prefetches already in cache/mshr dropped
system.cpu2.dcache.prefetcher.pfRemovedFull          117                       # number of prefetches dropped due to prefetch queue size
system.cpu2.dcache.prefetcher.pfSpanPage           99                       # number of prefetches that crossed the page
system.cpu2.discardedOps                      6214114                       # Number of ops (including micro ops) which were discarded before commit
system.cpu2.dtb.accesses                      7991885                       # DTB accesses
system.cpu2.dtb.align_faults                        0                       # Number of TLB faults due to alignment restrictions
system.cpu2.dtb.domain_faults                       0                       # Number of TLB faults due to domain restrictions
system.cpu2.dtb.flush_entries                       0                       # Number of entries that have been flushed from TLB
system.cpu2.dtb.flush_tlb                           0                       # Number of times complete TLB was flushed
system.cpu2.dtb.flush_tlb_asid                      0                       # Number of times TLB was flushed by ASID
system.cpu2.dtb.flush_tlb_mva                       0                       # Number of times TLB was flushed by MVA
system.cpu2.dtb.flush_tlb_mva_asid                  0                       # Number of times TLB was flushed by MVA & ASID
system.cpu2.dtb.hits                          7977027                       # DTB hits
system.cpu2.dtb.inst_accesses                       0                       # ITB inst accesses
system.cpu2.dtb.inst_hits                           0                       # ITB inst hits
system.cpu2.dtb.inst_misses                         0                       # ITB inst misses
system.cpu2.dtb.misses                          14858                       # DTB misses
system.cpu2.dtb.perms_faults                      194                       # Number of TLB faults due to permissions restrictions
system.cpu2.dtb.prefetch_faults                   103                       # Number of TLB faults due to prefetch
system.cpu2.dtb.read_accesses                 4145065                       # DTB read accesses
system.cpu2.dtb.read_hits                     4131838                       # DTB read hits
system.cpu2.dtb.read_misses                     13227                       # DTB read misses
system.cpu2.dtb.stage2_mmu.stage2_tlb.accesses            0                       # DTB accesses
system.cpu2.dtb.stage2_mmu.stage2_tlb.align_faults            0                       # Number of TLB faults due to alignment restrictions
system.cpu2.dtb.stage2_mmu.stage2_tlb.domain_faults            0                       # Number of TLB faults due to domain restrictions
system.cpu2.dtb.stage2_mmu.stage2_tlb.flush_entries            0                       # Number of entries that have been flushed from TLB
system.cpu2.dtb.stage2_mmu.stage2_tlb.flush_tlb            0                       # Number of times complete TLB was flushed
system.cpu2.dtb.stage2_mmu.stage2_tlb.flush_tlb_asid            0                       # Number of times TLB was flushed by ASID
system.cpu2.dtb.stage2_mmu.stage2_tlb.flush_tlb_mva            0                       # Number of times TLB was flushed by MVA
system.cpu2.dtb.stage2_mmu.stage2_tlb.flush_tlb_mva_asid            0                       # Number of times TLB was flushed by MVA & ASID
system.cpu2.dtb.stage2_mmu.stage2_tlb.hits            0                       # DTB hits
system.cpu2.dtb.stage2_mmu.stage2_tlb.inst_accesses            0                       # ITB inst accesses
system.cpu2.dtb.stage2_mmu.stage2_tlb.inst_hits            0                       # ITB inst hits
system.cpu2.dtb.stage2_mmu.stage2_tlb.inst_misses            0                       # ITB inst misses
system.cpu2.dtb.stage2_mmu.stage2_tlb.misses            0                       # DTB misses
system.cpu2.dtb.stage2_mmu.stage2_tlb.perms_faults            0                       # Number of TLB faults due to permissions restrictions
system.cpu2.dtb.stage2_mmu.stage2_tlb.prefetch_faults            0                       # Number of TLB faults due to prefetch
system.cpu2.dtb.stage2_mmu.stage2_tlb.read_accesses            0                       # DTB read accesses
system.cpu2.dtb.stage2_mmu.stage2_tlb.read_hits            0                       # DTB read hits
system.cpu2.dtb.stage2_mmu.stage2_tlb.read_misses            0                       # DTB read misses
system.cpu2.dtb.stage2_mmu.stage2_tlb.walker.walkRequestOrigin_Requested::Data            0                       # Table walker requests started/completed, data/inst
system.cpu2.dtb.stage2_mmu.stage2_tlb.walker.walkRequestOrigin_Requested::Inst            0                       # Table walker requests started/completed, data/inst
system.cpu2.dtb.stage2_mmu.stage2_tlb.walker.walkRequestOrigin_Requested::total            0                       # Table walker requests started/completed, data/inst
system.cpu2.dtb.stage2_mmu.stage2_tlb.walker.walkRequestOrigin_Completed::Data            0                       # Table walker requests started/completed, data/inst
system.cpu2.dtb.stage2_mmu.stage2_tlb.walker.walkRequestOrigin_Completed::Inst            0                       # Table walker requests started/completed, data/inst
system.cpu2.dtb.stage2_mmu.stage2_tlb.walker.walkRequestOrigin_Completed::total            0                       # Table walker requests started/completed, data/inst
system.cpu2.dtb.stage2_mmu.stage2_tlb.walker.walkRequestOrigin::total            0                       # Table walker requests started/completed, data/inst
system.cpu2.dtb.stage2_mmu.stage2_tlb.walker.walks            0                       # Table walker walks requested
system.cpu2.dtb.stage2_mmu.stage2_tlb.write_accesses            0                       # DTB write accesses
system.cpu2.dtb.stage2_mmu.stage2_tlb.write_hits            0                       # DTB write hits
system.cpu2.dtb.stage2_mmu.stage2_tlb.write_misses            0                       # DTB write misses
system.cpu2.dtb.walker.walkCompletionTime::samples          949                       # Table walker service (enqueue to completion) latency
system.cpu2.dtb.walker.walkCompletionTime::mean 13495.277134                       # Table walker service (enqueue to completion) latency
system.cpu2.dtb.walker.walkCompletionTime::gmean 12994.525876                       # Table walker service (enqueue to completion) latency
system.cpu2.dtb.walker.walkCompletionTime::stdev  5038.116582                       # Table walker service (enqueue to completion) latency
system.cpu2.dtb.walker.walkCompletionTime::8192-16383          923     97.26%     97.26% # Table walker service (enqueue to completion) latency
system.cpu2.dtb.walker.walkCompletionTime::16384-24575            6      0.63%     97.89% # Table walker service (enqueue to completion) latency
system.cpu2.dtb.walker.walkCompletionTime::24576-32767            8      0.84%     98.74% # Table walker service (enqueue to completion) latency
system.cpu2.dtb.walker.walkCompletionTime::32768-40959            7      0.74%     99.47% # Table walker service (enqueue to completion) latency
system.cpu2.dtb.walker.walkCompletionTime::40960-49151            1      0.11%     99.58% # Table walker service (enqueue to completion) latency
system.cpu2.dtb.walker.walkCompletionTime::49152-57343            3      0.32%     99.89% # Table walker service (enqueue to completion) latency
system.cpu2.dtb.walker.walkCompletionTime::90112-98303            1      0.11%    100.00% # Table walker service (enqueue to completion) latency
system.cpu2.dtb.walker.walkCompletionTime::total          949                       # Table walker service (enqueue to completion) latency
system.cpu2.dtb.walker.walkPageSizes::4K          941     99.16%     99.16% # Table walker page sizes translated
system.cpu2.dtb.walker.walkPageSizes::2M            8      0.84%    100.00% # Table walker page sizes translated
system.cpu2.dtb.walker.walkPageSizes::total          949                       # Table walker page sizes translated
system.cpu2.dtb.walker.walkRequestOrigin_Requested::Data        14858                       # Table walker requests started/completed, data/inst
system.cpu2.dtb.walker.walkRequestOrigin_Requested::Inst            0                       # Table walker requests started/completed, data/inst
system.cpu2.dtb.walker.walkRequestOrigin_Requested::total        14858                       # Table walker requests started/completed, data/inst
system.cpu2.dtb.walker.walkRequestOrigin_Completed::Data          949                       # Table walker requests started/completed, data/inst
system.cpu2.dtb.walker.walkRequestOrigin_Completed::Inst            0                       # Table walker requests started/completed, data/inst
system.cpu2.dtb.walker.walkRequestOrigin_Completed::total          949                       # Table walker requests started/completed, data/inst
system.cpu2.dtb.walker.walkRequestOrigin::total        15807                       # Table walker requests started/completed, data/inst
system.cpu2.dtb.walker.walkWaitTime::samples        14858                       # Table walker wait (enqueue to first request) latency
system.cpu2.dtb.walker.walkWaitTime::0          14858    100.00%    100.00% # Table walker wait (enqueue to first request) latency
system.cpu2.dtb.walker.walkWaitTime::total        14858                       # Table walker wait (enqueue to first request) latency
system.cpu2.dtb.walker.walks                    14858                       # Table walker walks requested
system.cpu2.dtb.walker.walksLong                14858                       # Table walker walks initiated with long descriptors
system.cpu2.dtb.walker.walksLongTerminationLevel::Level2            8                       # Level at which table walker walks with long descriptors terminate
system.cpu2.dtb.walker.walksLongTerminationLevel::Level3          941                       # Level at which table walker walks with long descriptors terminate
system.cpu2.dtb.write_accesses                3846820                       # DTB write accesses
system.cpu2.dtb.write_hits                    3845189                       # DTB write hits
system.cpu2.dtb.write_misses                     1631                       # DTB write misses
system.cpu2.fetch2.amo_instructions                 0                       # Number of memory atomic instructions successfully decoded
system.cpu2.fetch2.fp_instructions                  0                       # Number of floating point instructions successfully decoded
system.cpu2.fetch2.int_instructions          38489270                       # Number of integer instructions successfully decoded
system.cpu2.fetch2.load_instructions          2958190                       # Number of memory load instructions successfully decoded
system.cpu2.fetch2.store_instructions         1196485                       # Number of memory store instructions successfully decoded
system.cpu2.fetch2.vec_instructions                 0                       # Number of SIMD instructions successfully decoded
system.cpu2.idleCycles                       23934324                       # Total number of cycles that the object has spent stopped
system.cpu2.ipc                              0.360228                       # IPC: instructions per cycle
system.cpu2.itb.accesses                     14016325                       # DTB accesses
system.cpu2.itb.align_faults                        0                       # Number of TLB faults due to alignment restrictions
system.cpu2.itb.domain_faults                       0                       # Number of TLB faults due to domain restrictions
system.cpu2.itb.flush_entries                       0                       # Number of entries that have been flushed from TLB
system.cpu2.itb.flush_tlb                           0                       # Number of times complete TLB was flushed
system.cpu2.itb.flush_tlb_asid                      0                       # Number of times TLB was flushed by ASID
system.cpu2.itb.flush_tlb_mva                       0                       # Number of times TLB was flushed by MVA
system.cpu2.itb.flush_tlb_mva_asid                  0                       # Number of times TLB was flushed by MVA & ASID
system.cpu2.itb.hits                         14011224                       # DTB hits
system.cpu2.itb.inst_accesses                14016325                       # ITB inst accesses
system.cpu2.itb.inst_hits                    14011224                       # ITB inst hits
system.cpu2.itb.inst_misses                      5101                       # ITB inst misses
system.cpu2.itb.misses                           5101                       # DTB misses
system.cpu2.itb.perms_faults                      579                       # Number of TLB faults due to permissions restrictions
system.cpu2.itb.prefetch_faults                     0                       # Number of TLB faults due to prefetch
system.cpu2.itb.read_accesses                       0                       # DTB read accesses
system.cpu2.itb.read_hits                           0                       # DTB read hits
system.cpu2.itb.read_misses                         0                       # DTB read misses
system.cpu2.itb.stage2_mmu.stage2_tlb.accesses            0                       # DTB accesses
system.cpu2.itb.stage2_mmu.stage2_tlb.align_faults            0                       # Number of TLB faults due to alignment restrictions
system.cpu2.itb.stage2_mmu.stage2_tlb.domain_faults            0                       # Number of TLB faults due to domain restrictions
system.cpu2.itb.stage2_mmu.stage2_tlb.flush_entries            0                       # Number of entries that have been flushed from TLB
system.cpu2.itb.stage2_mmu.stage2_tlb.flush_tlb            0                       # Number of times complete TLB was flushed
system.cpu2.itb.stage2_mmu.stage2_tlb.flush_tlb_asid            0                       # Number of times TLB was flushed by ASID
system.cpu2.itb.stage2_mmu.stage2_tlb.flush_tlb_mva            0                       # Number of times TLB was flushed by MVA
system.cpu2.itb.stage2_mmu.stage2_tlb.flush_tlb_mva_asid            0                       # Number of times TLB was flushed by MVA & ASID
system.cpu2.itb.stage2_mmu.stage2_tlb.hits            0                       # DTB hits
system.cpu2.itb.stage2_mmu.stage2_tlb.inst_accesses            0                       # ITB inst accesses
system.cpu2.itb.stage2_mmu.stage2_tlb.inst_hits            0                       # ITB inst hits
system.cpu2.itb.stage2_mmu.stage2_tlb.inst_misses            0                       # ITB inst misses
system.cpu2.itb.stage2_mmu.stage2_tlb.misses            0                       # DTB misses
system.cpu2.itb.stage2_mmu.stage2_tlb.perms_faults            0                       # Number of TLB faults due to permissions restrictions
system.cpu2.itb.stage2_mmu.stage2_tlb.prefetch_faults            0                       # Number of TLB faults due to prefetch
system.cpu2.itb.stage2_mmu.stage2_tlb.read_accesses            0                       # DTB read accesses
system.cpu2.itb.stage2_mmu.stage2_tlb.read_hits            0                       # DTB read hits
system.cpu2.itb.stage2_mmu.stage2_tlb.read_misses            0                       # DTB read misses
system.cpu2.itb.stage2_mmu.stage2_tlb.walker.walkRequestOrigin_Requested::Data            0                       # Table walker requests started/completed, data/inst
system.cpu2.itb.stage2_mmu.stage2_tlb.walker.walkRequestOrigin_Requested::Inst            0                       # Table walker requests started/completed, data/inst
system.cpu2.itb.stage2_mmu.stage2_tlb.walker.walkRequestOrigin_Requested::total            0                       # Table walker requests started/completed, data/inst
system.cpu2.itb.stage2_mmu.stage2_tlb.walker.walkRequestOrigin_Completed::Data            0                       # Table walker requests started/completed, data/inst
system.cpu2.itb.stage2_mmu.stage2_tlb.walker.walkRequestOrigin_Completed::Inst            0                       # Table walker requests started/completed, data/inst
system.cpu2.itb.stage2_mmu.stage2_tlb.walker.walkRequestOrigin_Completed::total            0                       # Table walker requests started/completed, data/inst
system.cpu2.itb.stage2_mmu.stage2_tlb.walker.walkRequestOrigin::total            0                       # Table walker requests started/completed, data/inst
system.cpu2.itb.stage2_mmu.stage2_tlb.walker.walks            0                       # Table walker walks requested
system.cpu2.itb.stage2_mmu.stage2_tlb.write_accesses            0                       # DTB write accesses
system.cpu2.itb.stage2_mmu.stage2_tlb.write_hits            0                       # DTB write hits
system.cpu2.itb.stage2_mmu.stage2_tlb.write_misses            0                       # DTB write misses
system.cpu2.itb.walker.walkCompletionTime::samples         3270                       # Table walker service (enqueue to completion) latency
system.cpu2.itb.walker.walkCompletionTime::mean 12331.020183                       # Table walker service (enqueue to completion) latency
system.cpu2.itb.walker.walkCompletionTime::gmean 11868.306006                       # Table walker service (enqueue to completion) latency
system.cpu2.itb.walker.walkCompletionTime::stdev  4713.183957                       # Table walker service (enqueue to completion) latency
system.cpu2.itb.walker.walkCompletionTime::8192-12287         2626     80.31%     80.31% # Table walker service (enqueue to completion) latency
system.cpu2.itb.walker.walkCompletionTime::12288-16383          492     15.05%     95.35% # Table walker service (enqueue to completion) latency
system.cpu2.itb.walker.walkCompletionTime::20480-24575           36      1.10%     96.45% # Table walker service (enqueue to completion) latency
system.cpu2.itb.walker.walkCompletionTime::24576-28671          101      3.09%     99.54% # Table walker service (enqueue to completion) latency
system.cpu2.itb.walker.walkCompletionTime::53248-57343            1      0.03%     99.57% # Table walker service (enqueue to completion) latency
system.cpu2.itb.walker.walkCompletionTime::57344-61439           14      0.43%    100.00% # Table walker service (enqueue to completion) latency
system.cpu2.itb.walker.walkCompletionTime::total         3270                       # Table walker service (enqueue to completion) latency
system.cpu2.itb.walker.walkPageSizes::4K         3270    100.00%    100.00% # Table walker page sizes translated
system.cpu2.itb.walker.walkPageSizes::total         3270                       # Table walker page sizes translated
system.cpu2.itb.walker.walkRequestOrigin_Requested::Data            0                       # Table walker requests started/completed, data/inst
system.cpu2.itb.walker.walkRequestOrigin_Requested::Inst         5101                       # Table walker requests started/completed, data/inst
system.cpu2.itb.walker.walkRequestOrigin_Requested::total         5101                       # Table walker requests started/completed, data/inst
system.cpu2.itb.walker.walkRequestOrigin_Completed::Data            0                       # Table walker requests started/completed, data/inst
system.cpu2.itb.walker.walkRequestOrigin_Completed::Inst         3270                       # Table walker requests started/completed, data/inst
system.cpu2.itb.walker.walkRequestOrigin_Completed::total         3270                       # Table walker requests started/completed, data/inst
system.cpu2.itb.walker.walkRequestOrigin::total         8371                       # Table walker requests started/completed, data/inst
system.cpu2.itb.walker.walkWaitTime::samples         5101                       # Table walker wait (enqueue to first request) latency
system.cpu2.itb.walker.walkWaitTime::0           5101    100.00%    100.00% # Table walker wait (enqueue to first request) latency
system.cpu2.itb.walker.walkWaitTime::total         5101                       # Table walker wait (enqueue to first request) latency
system.cpu2.itb.walker.walks                     5101                       # Table walker walks requested
system.cpu2.itb.walker.walksLong                 5101                       # Table walker walks initiated with long descriptors
system.cpu2.itb.walker.walksLongTerminationLevel::Level3         3270                       # Level at which table walker walks with long descriptors terminate
system.cpu2.itb.write_accesses                      0                       # DTB write accesses
system.cpu2.itb.write_hits                          0                       # DTB write hits
system.cpu2.itb.write_misses                        0                       # DTB write misses
system.cpu2.kern.inst.arm                           0                       # number of arm instructions executed
system.cpu2.kern.inst.quiesce                     200                       # number of quiesce instructions executed
system.cpu2.numCycles                        67977215                       # number of cpu cycles simulated
system.cpu2.numFetchSuspends                      200                       # Number of times Execute suspended instruction fetching
system.cpu2.numWorkItemsCompleted                   0                       # number of work items this cpu completed
system.cpu2.numWorkItemsStarted                     0                       # number of work items this cpu started
system.cpu2.op_class_0::No_OpClass                  0      0.00%      0.00% # Class of committed instruction
system.cpu2.op_class_0::IntAlu               22631612     74.71%     74.71% # Class of committed instruction
system.cpu2.op_class_0::IntMult                 98993      0.33%     75.04% # Class of committed instruction
system.cpu2.op_class_0::IntDiv                    858      0.00%     75.04% # Class of committed instruction
system.cpu2.op_class_0::FloatAdd                    0      0.00%     75.04% # Class of committed instruction
system.cpu2.op_class_0::FloatCmp                    0      0.00%     75.04% # Class of committed instruction
system.cpu2.op_class_0::FloatCvt                    0      0.00%     75.04% # Class of committed instruction
[...]
system.mem_ctrls.wrQLenPdf::56                      0                       # What write queue length does an incoming req see
system.mem_ctrls.wrQLenPdf::57                      0                       # What write queue length does an incoming req see
system.mem_ctrls.wrQLenPdf::58                      0                       # What write queue length does an incoming req see
system.mem_ctrls.wrQLenPdf::59                      0                       # What write queue length does an incoming req see
system.mem_ctrls.wrQLenPdf::60                      0                       # What write queue length does an incoming req see
system.mem_ctrls.wrQLenPdf::61                      0                       # What write queue length does an incoming req see
system.mem_ctrls.wrQLenPdf::62                      0                       # What write queue length does an incoming req see
system.mem_ctrls.wrQLenPdf::63                      0                       # What write queue length does an incoming req see
system.mem_ctrls.bytesPerActivate::samples            1                       # Bytes accessed per row activation
system.mem_ctrls.bytesPerActivate::mean            64                       # Bytes accessed per row activation
system.mem_ctrls.bytesPerActivate::gmean    64.000000                       # Bytes accessed per row activation
system.mem_ctrls.bytesPerActivate::stdev          nan                       # Bytes accessed per row activation
system.mem_ctrls.bytesPerActivate::64-71            1    100.00%    100.00% # Bytes accessed per row activation
system.mem_ctrls.bytesPerActivate::total            1                       # Bytes accessed per row activation
system.mem_ctrls.bytesReadDRAM                     64                       # Total number of bytes read from DRAM
system.mem_ctrls.bytesReadWrQ                       0                       # Total number of bytes read from write queue
system.mem_ctrls.bytesWritten                       0                       # Total number of bytes written to DRAM
system.mem_ctrls.bytesReadSys                      64                       # Total read bytes from the system interface side
system.mem_ctrls.bytesWrittenSys                    0                       # Total written bytes from the system interface side
system.mem_ctrls.avgRdBW                         0.02                       # Average DRAM read bandwidth in MiByte/s
system.mem_ctrls.avgWrBW                         0.00                       # Average achieved write bandwidth in MiByte/s
system.mem_ctrls.avgRdBWSys                      0.02                       # Average system read bandwidth in MiByte/s
system.mem_ctrls.avgWrBWSys                      0.00                       # Average system write bandwidth in MiByte/s
system.mem_ctrls.peakBW                       4266.00                       # Theoretical peak bandwidth in MiByte/s
system.mem_ctrls.busUtil                         0.00                       # Data bus utilization in percentage
system.mem_ctrls.busUtilRead                     0.00                       # Data bus utilization in percentage for reads
system.mem_ctrls.busUtilWrite                    0.00                       # Data bus utilization in percentage for writes
system.mem_ctrls.totGap                    1075950162                       # Total gap between requests
system.mem_ctrls.avgGap                  1075950162.00                       # Average gap between requests
system.mem_ctrls.masterReadBytes::.cpu2.data           64                       # Per-master bytes read from memory
system.mem_ctrls.masterReadRate::.cpu2.data 20020.341630575604                       # Per-master bytes read from memory rate (Bytes/sec)
system.mem_ctrls.masterReadAccesses::.cpu2.data            2                       # Per-master read serviced memory accesses
system.mem_ctrls.masterReadTotalLat::.cpu2.data        82500                       # Per-master read total memory access latency
system.mem_ctrls.masterReadAvgLat::.cpu2.data     41250.00                       # Per-master read average memory access latency
system.mem_ctrls.pageHitRate                    50.00                       # Row buffer hit rate, read and write combined
system.mem_ctrls.rank0.actEnergy          3041.934000                       # Energy for activate commands per rank (pJ)
system.mem_ctrls.rank0.preEnergy          1071.571200                       # Energy for precharge commands per rank (pJ)
system.mem_ctrls.rank0.readEnergy         3435.331200                       # Energy for read commands per rank (pJ)
system.mem_ctrls.rank0.writeEnergy                  0                       # Energy for write commands per rank (pJ)
system.mem_ctrls.rank0.refreshEnergy     22858150.140000                       # Energy for refresh commands per rank (pJ)
system.mem_ctrls.rank0.actBackEnergy     3963316.392000                       # Energy for active background per rank (pJ)
system.mem_ctrls.rank0.preBackEnergy     122716018.656001                       # Energy for precharge background per rank (pJ)
system.mem_ctrls.rank0.actPowerDownEnergy            0                       # Energy for active power-down per rank (pJ)
system.mem_ctrls.rank0.prePowerDownEnergy            0                       # Energy for precharge power-down per rank (pJ)
system.mem_ctrls.rank0.selfRefreshEnergy            0                       # Energy for self refresh per rank (pJ)
system.mem_ctrls.rank0.totalEnergy       149545034.024399                       # Total energy per rank (pJ)
system.mem_ctrls.rank0.averagePower         46.780354                       # Core power per rank (mW)
system.mem_ctrls.rank0.totalIdleTime                0                       # Total Idle time Per DRAM Rank
system.mem_ctrls.rank0.memoryStateTime::IDLE   3089149672                       # Time in different power states
system.mem_ctrls.rank0.memoryStateTime::REF    106990000                       # Time in different power states
system.mem_ctrls.rank0.memoryStateTime::SREF            0                       # Time in different power states
system.mem_ctrls.rank0.memoryStateTime::PRE_PDN            0                       # Time in different power states
system.mem_ctrls.rank0.memoryStateTime::ACT      2150994                       # Time in different power states
system.mem_ctrls.rank0.memoryStateTime::ACT_PDN            0                       # Time in different power states
system.cpu1.pwrStateClkGateDist::samples            1                       # Distribution of time spent in the clock gated state
system.cpu1.pwrStateClkGateDist::mean      3216157308                       # Distribution of time spent in the clock gated state
system.cpu1.pwrStateClkGateDist::1000-5e+10            1    100.00%    100.00% # Distribution of time spent in the clock gated state
system.cpu1.pwrStateClkGateDist::min_value   3216157308                       # Distribution of time spent in the clock gated state
system.cpu1.pwrStateClkGateDist::max_value   3216157308                       # Distribution of time spent in the clock gated state
system.cpu1.pwrStateClkGateDist::total              1                       # Distribution of time spent in the clock gated state
system.cpu1.pwrStateResidencyTicks::CLK_GATED   3216157308                       # Cumulative time (in ticks) in various power states
system.cpu1.icache.pwrStateResidencyTicks::UNDEFINED   3216157308                       # Cumulative time (in ticks) in various power states
system.cpu1.icache.blocked_cycles::no_mshrs            0                       # number of cycles access was blocked
system.cpu1.icache.blocked_cycles::no_targets            0                       # number of cycles access was blocked
system.cpu1.icache.blocked::no_mshrs                0                       # number of cycles access was blocked
system.cpu1.icache.blocked::no_targets              0                       # number of cycles access was blocked
system.cpu1.icache.avg_blocked_cycles::no_mshrs          nan                       # average number of cycles each access was blocked
system.cpu1.icache.avg_blocked_cycles::no_targets          nan                       # average number of cycles each access was blocked
system.cpu1.icache.replacements                     0                       # number of replacements
system.cpu1.icache.tags.pwrStateResidencyTicks::UNDEFINED   3216157308                       # Cumulative time (in ticks) in various power states
system.cpu1.icache.tags.tagsinuse               13710                       # Cycle average of tags in use
system.cpu1.icache.tags.total_refs            3978522                       # Total number of references to valid blocks.
system.cpu1.icache.tags.sampled_refs            13710                       # Sample count of references to valid blocks.
system.cpu1.icache.tags.avg_refs           290.191247                       # Average number of references to valid blocks.
system.cpu1.icache.tags.warmup_cycle                0                       # Cycle when the warmup percentage was hit.
system.cpu1.icache.tags.occ_blocks::.cpu1.inst        13710                       # Average occupied blocks per requestor
system.cpu1.icache.tags.occ_percent::.cpu1.inst     0.006537                       # Average percentage of cache occupancy
system.cpu1.icache.tags.occ_percent::total     0.006537                       # Average percentage of cache occupancy
system.cpu1.icache.tags.occ_task_id_blocks::1024        13710                       # Occupied blocks per task id
system.cpu1.icache.tags.age_task_id_blocks_1024::4        13710                       # Occupied blocks per task id
system.cpu1.icache.tags.occ_task_id_percent::1024     0.006537                       # Percentage of cache occupancy per task id
system.cpu1.icache.tags.tag_accesses                0                       # Number of tag accesses
system.cpu1.icache.tags.data_accesses               0                       # Number of data accesses
system.cpu1.dtb.walker.pwrStateResidencyTicks::UNDEFINED   3216157308                       # Cumulative time (in ticks) in various power states
system.cpu1.dtb.stage2_mmu.stage2_tlb.walker.pwrStateResidencyTicks::UNDEFINED   3216157308                       # Cumulative time (in ticks) in various power states
system.cpu1.itb_walker_cache.pwrStateResidencyTicks::UNDEFINED   3216157308                       # Cumulative time (in ticks) in various power states
system.cpu1.itb_walker_cache.blocked_cycles::no_mshrs            0                       # number of cycles access was blocked
system.cpu1.itb_walker_cache.blocked_cycles::no_targets            0                       # number of cycles access was blocked
system.cpu1.itb_walker_cache.blocked::no_mshrs            0                       # number of cycles access was blocked
system.cpu1.itb_walker_cache.blocked::no_targets            0                       # number of cycles access was blocked
system.cpu1.itb_walker_cache.avg_blocked_cycles::no_mshrs          nan                       # average number of cycles each access was blocked
system.cpu1.itb_walker_cache.avg_blocked_cycles::no_targets          nan                       # average number of cycles each access was blocked
system.cpu1.itb_walker_cache.replacements            0                       # number of replacements
system.cpu1.itb_walker_cache.tags.pwrStateResidencyTicks::UNDEFINED   3216157308                       # Cumulative time (in ticks) in various power states
system.cpu1.itb_walker_cache.tags.tagsinuse           16                       # Cycle average of tags in use
system.cpu1.itb_walker_cache.tags.total_refs          111                       # Total number of references to valid blocks.
system.cpu1.itb_walker_cache.tags.sampled_refs           16                       # Sample count of references to valid blocks.
system.cpu1.itb_walker_cache.tags.avg_refs     6.937500                       # Average number of references to valid blocks.
system.cpu1.itb_walker_cache.tags.warmup_cycle            0                       # Cycle when the warmup percentage was hit.
system.cpu1.itb_walker_cache.tags.occ_blocks::.cpu1.itb.walker           16                       # Average occupied blocks per requestor
system.cpu1.itb_walker_cache.tags.occ_percent::.cpu1.itb.walker            1                       # Average percentage of cache occupancy
system.cpu1.itb_walker_cache.tags.occ_percent::total            1                       # Average percentage of cache occupancy
system.cpu1.itb_walker_cache.tags.occ_task_id_blocks::1023           16                       # Occupied blocks per task id
system.cpu1.itb_walker_cache.tags.age_task_id_blocks_1023::4           16                       # Occupied blocks per task id
system.cpu1.itb_walker_cache.tags.occ_task_id_percent::1023            1                       # Percentage of cache occupancy per task id
system.cpu1.itb_walker_cache.tags.tag_accesses            0                       # Number of tag accesses
system.cpu1.itb_walker_cache.tags.data_accesses            0                       # Number of data accesses
system.cpu1.dtb_walker_cache.pwrStateResidencyTicks::UNDEFINED   3216157308                       # Cumulative time (in ticks) in various power states
system.cpu1.dtb_walker_cache.blocked_cycles::no_mshrs            0                       # number of cycles access was blocked
system.cpu1.dtb_walker_cache.blocked_cycles::no_targets            0                       # number of cycles access was blocked
system.cpu1.dtb_walker_cache.blocked::no_mshrs            0                       # number of cycles access was blocked
system.cpu1.dtb_walker_cache.blocked::no_targets            0                       # number of cycles access was blocked
system.cpu1.dtb_walker_cache.avg_blocked_cycles::no_mshrs          nan                       # average number of cycles each access was blocked
system.cpu1.dtb_walker_cache.avg_blocked_cycles::no_targets          nan                       # average number of cycles each access was blocked
system.cpu1.dtb_walker_cache.replacements            0                       # number of replacements
system.cpu1.dtb_walker_cache.tags.pwrStateResidencyTicks::UNDEFINED   3216157308                       # Cumulative time (in ticks) in various power states
system.cpu1.dtb_walker_cache.tags.tagsinuse           16                       # Cycle average of tags in use
system.cpu1.dtb_walker_cache.tags.total_refs          895                       # Total number of references to valid blocks.
system.cpu1.dtb_walker_cache.tags.sampled_refs           16                       # Sample count of references to valid blocks.
system.cpu1.dtb_walker_cache.tags.avg_refs    55.937500                       # Average number of references to valid blocks.
system.cpu1.dtb_walker_cache.tags.warmup_cycle            0                       # Cycle when the warmup percentage was hit.
system.cpu1.dtb_walker_cache.tags.occ_blocks::.cpu1.dtb.walker           16                       # Average occupied blocks per requestor
system.cpu1.dtb_walker_cache.tags.occ_percent::.cpu1.dtb.walker            1                       # Average percentage of cache occupancy
system.cpu1.dtb_walker_cache.tags.occ_percent::total            1                       # Average percentage of cache occupancy
system.cpu1.dtb_walker_cache.tags.occ_task_id_blocks::1023           16                       # Occupied blocks per task id
system.cpu1.dtb_walker_cache.tags.age_task_id_blocks_1023::4           16                       # Occupied blocks per task id
system.cpu1.dtb_walker_cache.tags.occ_task_id_percent::1023            1                       # Percentage of cache occupancy per task id
system.cpu1.dtb_walker_cache.tags.tag_accesses            0                       # Number of tag accesses
system.cpu1.dtb_walker_cache.tags.data_accesses            0                       # Number of data accesses
system.cpu1.dcache.pwrStateResidencyTicks::UNDEFINED   3216157308                       # Cumulative time (in ticks) in various power states
system.cpu1.dcache.blocked_cycles::no_mshrs            0                       # number of cycles access was blocked
system.cpu1.dcache.blocked_cycles::no_targets            0                       # number of cycles access was blocked
system.cpu1.dcache.blocked::no_mshrs                0                       # number of cycles access was blocked
system.cpu1.dcache.blocked::no_targets              0                       # number of cycles access was blocked
system.cpu1.dcache.avg_blocked_cycles::no_mshrs          nan                       # average number of cycles each access was blocked
system.cpu1.dcache.avg_blocked_cycles::no_targets          nan                       # average number of cycles each access was blocked
system.cpu1.dcache.replacements                     0                       # number of replacements
system.cpu1.dcache.prefetcher.pwrStateResidencyTicks::UNDEFINED   3216157308                       # Cumulative time (in ticks) in various power states
system.cpu1.dcache.tags.pwrStateResidencyTicks::UNDEFINED   3216157308                       # Cumulative time (in ticks) in various power states
system.cpu1.dcache.tags.tagsinuse               17021                       # Cycle average of tags in use
system.cpu1.dcache.tags.total_refs            2704578                       # Total number of references to valid blocks.
system.cpu1.dcache.tags.sampled_refs            17021                       # Sample count of references to valid blocks.
system.cpu1.dcache.tags.avg_refs           158.896540                       # Average number of references to valid blocks.
system.cpu1.dcache.tags.warmup_cycle                0                       # Cycle when the warmup percentage was hit.
system.cpu1.dcache.tags.occ_blocks::.cpu1.data        13142                       # Average occupied blocks per requestor
system.cpu1.dcache.tags.occ_blocks::.cpu1.dcache.prefetcher         3879                       # Average occupied blocks per requestor
system.cpu1.dcache.tags.occ_percent::.cpu1.data     0.006267                       # Average percentage of cache occupancy
system.cpu1.dcache.tags.occ_percent::.cpu1.dcache.prefetcher     0.001850                       # Average percentage of cache occupancy
system.cpu1.dcache.tags.occ_percent::total     0.008116                       # Average percentage of cache occupancy
system.cpu1.dcache.tags.occ_task_id_blocks::1022         3879                       # Occupied blocks per task id
system.cpu1.dcache.tags.occ_task_id_blocks::1024        13142                       # Occupied blocks per task id
system.cpu1.dcache.tags.age_task_id_blocks_1022::4         3879                       # Occupied blocks per task id
system.cpu1.dcache.tags.age_task_id_blocks_1024::4        13142                       # Occupied blocks per task id
system.cpu1.dcache.tags.occ_task_id_percent::1022     0.001850                       # Percentage of cache occupancy per task id
system.cpu1.dcache.tags.occ_task_id_percent::1024     0.006267                       # Percentage of cache occupancy per task id
system.cpu1.dcache.tags.tag_accesses                0                       # Number of tag accesses
system.cpu1.dcache.tags.data_accesses               0                       # Number of data accesses
system.cpu1.itb.walker.pwrStateResidencyTicks::UNDEFINED   3216157308                       # Cumulative time (in ticks) in various power states
system.cpu1.itb.stage2_mmu.stage2_tlb.walker.pwrStateResidencyTicks::UNDEFINED   3216157308                       # Cumulative time (in ticks) in various power states
system.cpu_clk_domain.clock                       714                       # Clock period in ticks
system.pci_ide.pwrStateResidencyTicks::UNDEFINED   3216157308                       # Cumulative time (in ticks) in various power states

---------- End Simulation Statistics   ----------
