
---------- Begin Simulation Statistics ----------
final_tick                               47145182897760992                       # Number of ticks from beginning of simulation (restored from checkpoints and never reset)
host_inst_rate                                1214441                       # Simulator instruction rate (inst/s)
host_mem_usage                                1611008                       # Number of bytes of host memory used
host_op_rate                                  1471566                       # Simulator op (including micro ops) rate (op/s)
host_seconds                                    17.11                       # Real time elapsed on the host
host_tick_rate                              500343908                       # Simulator tick rate (ticks/s)
sim_freq                                 1000000000000                       # Frequency of simulated ticks
sim_insts                                    20776682                       # Number of instructions simulated
sim_ops                                      25175683                       # Number of ops (including micro ops) simulated
sim_seconds                                  0.008560                       # Number of seconds simulated
sim_ticks                                  8559933942                       # Number of ticks simulated
system.cpu0.branchPred.BTBCorrect                   0                       # Number of correct BTB predictions (this stat may not work properly.
system.cpu0.branchPred.BTBHitPct            20.208283                       # BTB Hit Percentage
system.cpu0.branchPred.BTBHits                   5802                       # Number of BTB hits
system.cpu0.branchPred.BTBLookups               28711                       # Number of BTB lookups
system.cpu0.branchPred.RASInCorrect               989                       # Number of incorrect RAS predictions.
system.cpu0.branchPred.condIncorrect             6011                       # Number of conditional branches incorrect
system.cpu0.branchPred.condPredicted            16752                       # Number of conditional branches predicted
system.cpu0.branchPred.indirectHits               514                       # Number of indirect target hits.
system.cpu0.branchPred.indirectLookups            740                       # Number of indirect predictor lookups.
system.cpu0.branchPred.indirectMisses             226                       # Number of indirect misses.
system.cpu0.branchPred.lookups                  39315                       # Number of BP lookups
system.cpu0.branchPred.usedRAS                  10407                       # Number of times the RAS was used to get a target.
system.cpu0.branchPredindirectMispredicted           32                       # Number of mispredicted indirect branches.
system.cpu0.committedInsts                     104851                       # Number of instructions committed
system.cpu0.committedOps                       137587                       # Number of ops (including micro ops) committed
system.cpu0.cpi                              3.722635                       # CPI: cycles per instruction
system.cpu0.dcache.prefetcher.num_hwpf_issued           77                       # number of hwpf issued
system.cpu0.dcache.prefetcher.pfBufferHit            0                       # number of redundant prefetches already in prefetch queue
system.cpu0.dcache.prefetcher.pfIdentified           77                       # number of prefetch candidates identified
system.cpu0.dcache.prefetcher.pfInCache             0                       # number of redundant prefetches already in cache/mshr dropped
system.cpu0.dcache.prefetcher.pfRemovedFull            0                       # number of prefetches dropped due to prefetch queue size
system.cpu0.dcache.prefetcher.pfSpanPage           27                       # number of prefetches that crossed the page
system.cpu0.discardedOps                        19247                       # Number of ops (including micro ops) which were discarded before commit
system.cpu0.dtb.accesses                        51432                       # DTB accesses
system.cpu0.dtb.align_faults                        1                       # Number of TLB faults due to alignment restrictions
system.cpu0.dtb.domain_faults                       0                       # Number of TLB faults due to domain restrictions
system.cpu0.dtb.flush_entries                       0                       # Number of entries that have been flushed from TLB
system.cpu0.dtb.flush_tlb                           0                       # Number of times complete TLB was flushed
system.cpu0.dtb.flush_tlb_asid                      3                       # Number of times TLB was flushed by ASID
system.cpu0.dtb.flush_tlb_mva                       0                       # Number of times TLB was flushed by MVA
system.cpu0.dtb.flush_tlb_mva_asid                136                       # Number of times TLB was flushed by MVA & ASID
system.cpu0.dtb.hits                            51208                       # DTB hits
system.cpu0.dtb.inst_accesses                       0                       # ITB inst accesses
system.cpu0.dtb.inst_hits                           0                       # ITB inst hits
system.cpu0.dtb.inst_misses                         0                       # ITB inst misses
system.cpu0.dtb.misses                            224                       # DTB misses
system.cpu0.dtb.perms_faults                        2                       # Number of TLB faults due to permissions restrictions
system.cpu0.dtb.prefetch_faults                     3                       # Number of TLB faults due to prefetch
system.cpu0.dtb.read_accesses                   28266                       # DTB read accesses
system.cpu0.dtb.read_hits                       28092                       # DTB read hits
system.cpu0.dtb.read_misses                       174                       # DTB read misses
system.cpu0.dtb.stage2_mmu.stage2_tlb.accesses            0                       # DTB accesses
system.cpu0.dtb.stage2_mmu.stage2_tlb.align_faults            0                       # Number of TLB faults due to alignment restrictions
system.cpu0.dtb.stage2_mmu.stage2_tlb.domain_faults            0                       # Number of TLB faults due to domain restrictions
system.cpu0.dtb.stage2_mmu.stage2_tlb.flush_entries            0                       # Number of entries that have been flushed from TLB
system.cpu0.dtb.stage2_mmu.stage2_tlb.flush_tlb            0                       # Number of times complete TLB was flushed
system.cpu0.dtb.stage2_mmu.stage2_tlb.flush_tlb_asid            0                       # Number of times TLB was flushed by ASID
system.cpu0.dtb.stage2_mmu.stage2_tlb.flush_tlb_mva            0                       # Number of times TLB was flushed by MVA
system.cpu0.dtb.stage2_mmu.stage2_tlb.flush_tlb_mva_asid            0                       # Number of times TLB was flushed by MVA & ASID
system.cpu0.dtb.stage2_mmu.stage2_tlb.hits            0                       # DTB hits
system.cpu0.dtb.stage2_mmu.stage2_tlb.inst_accesses            0                       # ITB inst accesses
system.cpu0.dtb.stage2_mmu.stage2_tlb.inst_hits            0                       # ITB inst hits
system.cpu0.dtb.stage2_mmu.stage2_tlb.inst_misses            0                       # ITB inst misses
system.cpu0.dtb.stage2_mmu.stage2_tlb.misses            0                       # DTB misses
system.cpu0.dtb.stage2_mmu.stage2_tlb.perms_faults            0                       # Number of TLB faults due to permissions restrictions
system.cpu0.dtb.stage2_mmu.stage2_tlb.prefetch_faults            0                       # Number of TLB faults due to prefetch
system.cpu0.dtb.stage2_mmu.stage2_tlb.read_accesses            0                       # DTB read accesses
system.cpu0.dtb.stage2_mmu.stage2_tlb.read_hits            0                       # DTB read hits
system.cpu0.dtb.stage2_mmu.stage2_tlb.read_misses            0                       # DTB read misses
system.cpu0.dtb.stage2_mmu.stage2_tlb.walker.walkRequestOrigin_Requested::Data            0                       # Table walker requests started/completed, data/inst
system.cpu0.dtb.stage2_mmu.stage2_tlb.walker.walkRequestOrigin_Requested::Inst            0                       # Table walker requests started/completed, data/inst
system.cpu0.dtb.stage2_mmu.stage2_tlb.walker.walkRequestOrigin_Requested::total            0                       # Table walker requests started/completed, data/inst
system.cpu0.dtb.stage2_mmu.stage2_tlb.walker.walkRequestOrigin_Completed::Data            0                       # Table walker requests started/completed, data/inst
system.cpu0.dtb.stage2_mmu.stage2_tlb.walker.walkRequestOrigin_Completed::Inst            0                       # Table walker requests started/completed, data/inst
system.cpu0.dtb.stage2_mmu.stage2_tlb.walker.walkRequestOrigin_Completed::total            0                       # Table walker requests started/completed, data/inst
system.cpu0.dtb.stage2_mmu.stage2_tlb.walker.walkRequestOrigin::total            0                       # Table walker requests started/completed, data/inst
system.cpu0.dtb.stage2_mmu.stage2_tlb.walker.walks            0                       # Table walker walks requested
system.cpu0.dtb.stage2_mmu.stage2_tlb.write_accesses            0                       # DTB write accesses
system.cpu0.dtb.stage2_mmu.stage2_tlb.write_hits            0                       # DTB write hits
system.cpu0.dtb.stage2_mmu.stage2_tlb.write_misses            0                       # DTB write misses
system.cpu0.dtb.walker.walkCompletionTime::samples            1                       # Table walker service (enqueue to completion) latency
system.cpu0.dtb.walker.walkCompletionTime::mean        24276                       # Table walker service (enqueue to completion) latency
system.cpu0.dtb.walker.walkCompletionTime::gmean 24276.000000                       # Table walker service (enqueue to completion) latency
system.cpu0.dtb.walker.walkCompletionTime::22528-24575            1    100.00%    100.00% # Table walker service (enqueue to completion) latency
system.cpu0.dtb.walker.walkCompletionTime::total            1                       # Table walker service (enqueue to completion) latency
system.cpu0.dtb.walker.walkPageSizes::4K            1    100.00%    100.00% # Table walker page sizes translated
system.cpu0.dtb.walker.walkPageSizes::total            1                       # Table walker page sizes translated
system.cpu0.dtb.walker.walkRequestOrigin_Requested::Data          224                       # Table walker requests started/completed, data/inst
system.cpu0.dtb.walker.walkRequestOrigin_Requested::Inst            0                       # Table walker requests started/completed, data/inst
system.cpu0.dtb.walker.walkRequestOrigin_Requested::total          224                       # Table walker requests started/completed, data/inst
system.cpu0.dtb.walker.walkRequestOrigin_Completed::Data            1                       # Table walker requests started/completed, data/inst
system.cpu0.dtb.walker.walkRequestOrigin_Completed::Inst            0                       # Table walker requests started/completed, data/inst
system.cpu0.dtb.walker.walkRequestOrigin_Completed::total            1                       # Table walker requests started/completed, data/inst
system.cpu0.dtb.walker.walkRequestOrigin::total          225                       # Table walker requests started/completed, data/inst
system.cpu0.dtb.walker.walkWaitTime::samples          224                       # Table walker wait (enqueue to first request) latency
system.cpu0.dtb.walker.walkWaitTime::0            224    100.00%    100.00% # Table walker wait (enqueue to first request) latency
system.cpu0.dtb.walker.walkWaitTime::total          224                       # Table walker wait (enqueue to first request) latency
system.cpu0.dtb.walker.walks                      224                       # Table walker walks requested
system.cpu0.dtb.walker.walksLong                  224                       # Table walker walks initiated with long descriptors
system.cpu0.dtb.walker.walksLongTerminationLevel::Level3            1                       # Level at which table walker walks with long descriptors terminate
system.cpu0.dtb.write_accesses                  23166                       # DTB write accesses
system.cpu0.dtb.write_hits                      23116                       # DTB write hits
system.cpu0.dtb.write_misses                       50                       # DTB write misses
system.cpu0.fetch2.amo_instructions                 0                       # Number of memory atomic instructions successfully decoded
system.cpu0.fetch2.fp_instructions                  0                       # Number of floating point instructions successfully decoded
system.cpu0.fetch2.int_instructions            102857                       # Number of integer instructions successfully decoded
system.cpu0.fetch2.load_instructions            27375                       # Number of memory load instructions successfully decoded
system.cpu0.fetch2.store_instructions            7416                       # Number of memory store instructions successfully decoded
system.cpu0.fetch2.vec_instructions                 0                       # Number of SIMD instructions successfully decoded
system.cpu0.idleCycles                         176773                       # Total number of cycles that the object has spent stopped
system.cpu0.ipc                              0.268627                       # IPC: instructions per cycle
system.cpu0.itb.accesses                        58050                       # DTB accesses
system.cpu0.itb.align_faults                        0                       # Number of TLB faults due to alignment restrictions
system.cpu0.itb.domain_faults                       0                       # Number of TLB faults due to domain restrictions
system.cpu0.itb.flush_entries                       0                       # Number of entries that have been flushed from TLB
system.cpu0.itb.flush_tlb                           0                       # Number of times complete TLB was flushed
system.cpu0.itb.flush_tlb_asid                      3                       # Number of times TLB was flushed by ASID
system.cpu0.itb.flush_tlb_mva                       0                       # Number of times TLB was flushed by MVA
system.cpu0.itb.flush_tlb_mva_asid                136                       # Number of times TLB was flushed by MVA & ASID
system.cpu0.itb.hits                            58050                       # DTB hits
system.cpu0.itb.inst_accesses                   58050                       # ITB inst accesses
system.cpu0.itb.inst_hits                       58050                       # ITB inst hits
system.cpu0.itb.inst_misses                         0                       # ITB inst misses
system.cpu0.itb.misses                              0                       # DTB misses
system.cpu0.itb.perms_faults                        0                       # Number of TLB faults due to permissions restrictions
system.cpu0.itb.prefetch_faults                     0                       # Number of TLB faults due to prefetch
system.cpu0.itb.read_accesses                       0                       # DTB read accesses
system.cpu0.itb.read_hits                           0                       # DTB read hits
system.cpu0.itb.read_misses                         0                       # DTB read misses
system.cpu0.itb.stage2_mmu.stage2_tlb.accesses            0                       # DTB accesses
system.cpu0.itb.stage2_mmu.stage2_tlb.align_faults            0                       # Number of TLB faults due to alignment restrictions
system.cpu0.itb.stage2_mmu.stage2_tlb.domain_faults            0                       # Number of TLB faults due to domain restrictions
system.cpu0.itb.stage2_mmu.stage2_tlb.flush_entries            0                       # Number of entries that have been flushed from TLB
system.cpu0.itb.stage2_mmu.stage2_tlb.flush_tlb            0                       # Number of times complete TLB was flushed
system.cpu0.itb.stage2_mmu.stage2_tlb.flush_tlb_asid            0                       # Number of times TLB was flushed by ASID
system.cpu0.itb.stage2_mmu.stage2_tlb.flush_tlb_mva            0                       # Number of times TLB was flushed by MVA
system.cpu0.itb.stage2_mmu.stage2_tlb.flush_tlb_mva_asid            0                       # Number of times TLB was flushed by MVA & ASID
system.cpu0.itb.stage2_mmu.stage2_tlb.hits            0                       # DTB hits
system.cpu0.itb.stage2_mmu.stage2_tlb.inst_accesses            0                       # ITB inst accesses
system.cpu0.itb.stage2_mmu.stage2_tlb.inst_hits            0                       # ITB inst hits
system.cpu0.itb.stage2_mmu.stage2_tlb.inst_misses            0                       # ITB inst misses
system.cpu0.itb.stage2_mmu.stage2_tlb.misses            0                       # DTB misses
system.cpu0.itb.stage2_mmu.stage2_tlb.perms_faults            0                       # Number of TLB faults due to permissions restrictions
system.cpu0.itb.stage2_mmu.stage2_tlb.prefetch_faults            0                       # Number of TLB faults due to prefetch
system.cpu0.itb.stage2_mmu.stage2_tlb.read_accesses            0                       # DTB read accesses
system.cpu0.itb.stage2_mmu.stage2_tlb.read_hits            0                       # DTB read hits
system.cpu0.itb.stage2_mmu.stage2_tlb.read_misses            0                       # DTB read misses
system.cpu0.itb.stage2_mmu.stage2_tlb.walker.walkRequestOrigin_Requested::Data            0                       # Table walker requests started/completed, data/inst
system.cpu0.itb.stage2_mmu.stage2_tlb.walker.walkRequestOrigin_Requested::Inst            0                       # Table walker requests started/completed, data/inst
system.cpu0.itb.stage2_mmu.stage2_tlb.walker.walkRequestOrigin_Requested::total            0                       # Table walker requests started/completed, data/inst
system.cpu0.itb.stage2_mmu.stage2_tlb.walker.walkRequestOrigin_Completed::Data            0                       # Table walker requests started/completed, data/inst
system.cpu0.itb.stage2_mmu.stage2_tlb.walker.walkRequestOrigin_Completed::Inst            0                       # Table walker requests started/completed, data/inst
system.cpu0.itb.stage2_mmu.stage2_tlb.walker.walkRequestOrigin_Completed::total            0                       # Table walker requests started/completed, data/inst
system.cpu0.itb.stage2_mmu.stage2_tlb.walker.walkRequestOrigin::total            0                       # Table walker requests started/completed, data/inst
system.cpu0.itb.stage2_mmu.stage2_tlb.walker.walks            0                       # Table walker walks requested
system.cpu0.itb.stage2_mmu.stage2_tlb.write_accesses            0                       # DTB write accesses
system.cpu0.itb.stage2_mmu.stage2_tlb.write_hits            0                       # DTB write hits
system.cpu0.itb.stage2_mmu.stage2_tlb.write_misses            0                       # DTB write misses
system.cpu0.itb.walker.walkRequestOrigin_Requested::Data            0                       # Table walker requests started/completed, data/inst
system.cpu0.itb.walker.walkRequestOrigin_Requested::Inst            0                       # Table walker requests started/completed, data/inst
system.cpu0.itb.walker.walkRequestOrigin_Requested::total            0                       # Table walker requests started/completed, data/inst
system.cpu0.itb.walker.walkRequestOrigin_Completed::Data            0                       # Table walker requests started/completed, data/inst
system.cpu0.itb.walker.walkRequestOrigin_Completed::Inst            0                       # Table walker requests started/completed, data/inst
system.cpu0.itb.walker.walkRequestOrigin_Completed::total            0                       # Table walker requests started/completed, data/inst
system.cpu0.itb.walker.walkRequestOrigin::total            0                       # Table walker requests started/completed, data/inst
system.cpu0.itb.walker.walks                        0                       # Table walker walks requested
system.cpu0.itb.write_accesses                      0                       # DTB write accesses
system.cpu0.itb.write_hits                          0                       # DTB write hits
system.cpu0.itb.write_misses                        0                       # DTB write misses
system.cpu0.kern.inst.arm                           0                       # number of arm instructions executed
system.cpu0.kern.inst.quiesce                      23                       # number of quiesce instructions executed
system.cpu0.numCycles                          390322                       # number of cpu cycles simulated
system.cpu0.numFetchSuspends                       23                       # Number of times Execute suspended instruction fetching
system.cpu0.numWorkItemsCompleted                   0                       # number of work items this cpu completed
system.cpu0.numWorkItemsStarted                     0                       # number of work items this cpu started
system.cpu0.op_class_0::No_OpClass                  0      0.00%      0.00% # Class of committed instruction
system.cpu0.op_class_0::IntAlu                  89299     64.90%     64.90% # Class of committed instruction
system.cpu0.op_class_0::IntMult                    89      0.06%     64.97% # Class of committed instruction
system.cpu0.op_class_0::IntDiv                     15      0.01%     64.98% # Class of committed instruction
system.cpu0.op_class_0::FloatAdd                    0      0.00%     64.98% # Class of committed instruction
system.cpu0.op_class_0::FloatCmp                    0      0.00%     64.98% # Class of committed instruction
system.cpu0.op_class_0::FloatCvt                    0      0.00%     64.98% # Class of committed instruction
system.cpu0.op_class_0::FloatMult                   0      0.00%     64.98% # Class of committed instruction
system.cpu0.op_class_0::FloatMultAcc                0      0.00%     64.98% # Class of committed instruction
system.cpu0.op_class_0::FloatDiv                    0      0.00%     64.98% # Class of committed instruction
system.cpu0.op_class_0::FloatMisc                   0      0.00%     64.98% # Class of committed instruction
system.cpu0.op_class_0::FloatSqrt                   0      0.00%     64.98% # Class of committed instruction
system.cpu0.op_class_0::SimdAdd                     0      0.00%     64.98% # Class of committed instruction
system.cpu0.op_class_0::SimdAddAcc                  0      0.00%     64.98% # Class of committed instruction
system.cpu0.op_class_0::SimdAlu                     0      0.00%     64.98% # Class of committed instruction
system.cpu0.op_class_0::SimdCmp                     0      0.00%     64.98% # Class of committed instruction
system.cpu0.op_class_0::SimdCvt                     0      0.00%     64.98% # Class of committed instruction
system.cpu0.op_class_0::SimdMisc                    0      0.00%     64.98% # Class of committed instruction
system.cpu0.op_class_0::SimdMult                    0      0.00%     64.98% # Class of committed instruction
system.cpu0.op_class_0::SimdMultAcc                 0      0.00%     64.98% # Class of committed instruction
system.cpu0.op_class_0::SimdShift                   0      0.00%     64.98% # Class of committed instruction
system.cpu0.op_class_0::SimdShiftAcc                0      0.00%     64.98% # Class of committed instruction
system.cpu0.op_class_0::SimdDiv                     0      0.00%     64.98% # Class of committed instruction
system.cpu0.op_class_0::SimdSqrt                    0      0.00%     64.98% # Class of committed instruction
system.cpu0.op_class_0::SimdFloatAdd                0      0.00%     64.98% # Class of committed instruction
system.cpu0.op_class_0::SimdFloatAlu                0      0.00%     64.98% # Class of committed instruction
system.cpu0.op_class_0::SimdFloatCmp                0      0.00%     64.98% # Class of committed instruction
system.cpu0.op_class_0::SimdFloatCvt                0      0.00%     64.98% # Class of committed instruction
system.cpu0.op_class_0::SimdFloatDiv                0      0.00%     64.98% # Class of committed instruction
system.cpu0.op_class_0::SimdFloatMisc               0      0.00%     64.98% # Class of committed instruction
system.cpu0.op_class_0::SimdFloatMult               0      0.00%     64.98% # Class of committed instruction
system.cpu0.op_class_0::SimdFloatMultAcc            0      0.00%     64.98% # Class of committed instruction
system.cpu0.op_class_0::SimdFloatSqrt               0      0.00%     64.98% # Class of committed instruction
system.cpu0.op_class_0::SimdReduceAdd               0      0.00%     64.98% # Class of committed instruction
system.cpu0.op_class_0::SimdReduceAlu               0      0.00%     64.98% # Class of committed instruction
system.cpu0.op_class_0::SimdReduceCmp               0      0.00%     64.98% # Class of committed instruction
system.cpu0.op_class_0::SimdFloatReduceAdd            0      0.00%     64.98% # Class of committed instruction
system.cpu0.op_class_0::SimdFloatReduceCmp            0      0.00%     64.98% # Class of committed instruction
system.cpu0.op_class_0::SimdAes                     0      0.00%     64.98% # Class of committed instruction
system.cpu0.op_class_0::SimdAesMix                  0      0.00%     64.98% # Class of committed instruction
system.cpu0.op_class_0::SimdSha1Hash                0      0.00%     64.98% # Class of committed instruction
system.cpu0.op_class_0::SimdSha1Hash2               0      0.00%     64.98% # Class of committed instruction
system.cpu0.op_class_0::SimdSha256Hash              0      0.00%     64.98% # Class of committed instruction
system.cpu0.op_class_0::SimdSha256Hash2             0      0.00%     64.98% # Class of committed instruction
system.cpu0.op_class_0::SimdShaSigma2               0      0.00%     64.98% # Class of committed instruction
system.cpu0.op_class_0::SimdShaSigma3               0      0.00%     64.98% # Class of committed instruction
system.cpu0.op_class_0::SimdPredAlu                 0      0.00%     64.98% # Class of committed instruction
system.cpu0.op_class_0::MemRead                 25339     18.42%     83.40% # Class of committed instruction
system.cpu0.op_class_0::MemWrite                22845     16.60%    100.00% # Class of committed instruction
system.cpu0.op_class_0::FloatMemRead                0      0.00%    100.00% # Class of committed instruction
system.cpu0.op_class_0::FloatMemWrite               0      0.00%    100.00% # Class of committed instruction
system.cpu0.op_class_0::IprAccess                   0      0.00%    100.00% # Class of committed instruction
system.cpu0.op_class_0::InstPrefetch                0      0.00%    100.00% # Class of committed instruction
system.cpu0.op_class_0::total                  137587                       # Class of committed instruction
system.cpu0.quiesceCycles                    10802631                       # Total number of cycles that CPU has spent quiesced or waiting for an interrupt
system.cpu0.tickCycles                         213549                       # Number of cycles that the object actually ticked
system.cpu1.branchPred.BTBCorrect                   0                       # Number of correct BTB predictions (this stat may not work properly.
system.cpu1.branchPred.BTBHitPct            30.515349                       # BTB Hit Percentage
system.cpu1.branchPred.BTBHits                  37316                       # Number of BTB hits
system.cpu1.branchPred.BTBLookups              122286                       # Number of BTB lookups
system.cpu1.branchPred.RASInCorrect               979                       # Number of incorrect RAS predictions.
system.cpu1.branchPred.condIncorrect            16779                       # Number of conditional branches incorrect
system.cpu1.branchPred.condPredicted            94047                       # Number of conditional branches predicted
system.cpu1.branchPred.indirectHits               932                       # Number of indirect target hits.
system.cpu1.branchPred.indirectLookups           1660                       # Number of indirect predictor lookups.
system.cpu1.branchPred.indirectMisses             728                       # Number of indirect misses.
system.cpu1.branchPred.lookups                 151057                       # Number of BP lookups
system.cpu1.branchPred.usedRAS                  22630                       # Number of times the RAS was used to get a target.
system.cpu1.branchPredindirectMispredicted          462                       # Number of mispredicted indirect branches.
system.cpu1.committedInsts                     449332                       # Number of instructions committed
system.cpu1.committedOps                       538847                       # Number of ops (including micro ops) committed
system.cpu1.cpi                              3.177526                       # CPI: cycles per instruction
system.cpu1.dcache.prefetcher.num_hwpf_issued         1550                       # number of hwpf issued
system.cpu1.dcache.prefetcher.pfBufferHit         1494                       # number of redundant prefetches already in prefetch queue
system.cpu1.dcache.prefetcher.pfIdentified         4656                       # number of prefetch candidates identified
system.cpu1.dcache.prefetcher.pfInCache             0                       # number of redundant prefetches already in cache/mshr dropped
system.cpu1.dcache.prefetcher.pfRemovedFull          215                       # number of prefetches dropped due to prefetch queue size
system.cpu1.dcache.prefetcher.pfSpanPage          316                       # number of prefetches that crossed the page
system.cpu1.discardedOps                        55057                       # Number of ops (including micro ops) which were discarded before commit
system.cpu1.dtb.accesses                       186763                       # DTB accesses
system.cpu1.dtb.align_faults                        1                       # Number of TLB faults due to alignment restrictions
system.cpu1.dtb.domain_faults                       0                       # Number of TLB faults due to domain restrictions
system.cpu1.dtb.flush_entries                      10                       # Number of entries that have been flushed from TLB
system.cpu1.dtb.flush_tlb                           0                       # Number of times complete TLB was flushed
system.cpu1.dtb.flush_tlb_asid                      3                       # Number of times TLB was flushed by ASID
system.cpu1.dtb.flush_tlb_mva                       0                       # Number of times TLB was flushed by MVA
system.cpu1.dtb.flush_tlb_mva_asid                136                       # Number of times TLB was flushed by MVA & ASID
system.cpu1.dtb.hits                           185923                       # DTB hits
system.cpu1.dtb.inst_accesses                       0                       # ITB inst accesses
system.cpu1.dtb.inst_hits                           0                       # ITB inst hits
system.cpu1.dtb.inst_misses                         0                       # ITB inst misses
system.cpu1.dtb.misses                            840                       # DTB misses
system.cpu1.dtb.perms_faults                      105                       # Number of TLB faults due to permissions restrictions
system.cpu1.dtb.prefetch_faults                    28                       # Number of TLB faults due to prefetch
system.cpu1.dtb.read_accesses                  109282                       # DTB read accesses
system.cpu1.dtb.read_hits                      108578                       # DTB read hits
system.cpu1.dtb.read_misses                       704                       # DTB read misses
system.cpu1.dtb.stage2_mmu.stage2_tlb.accesses            0                       # DTB accesses
system.cpu1.dtb.stage2_mmu.stage2_tlb.align_faults            0                       # Number of TLB faults due to alignment restrictions
system.cpu1.dtb.stage2_mmu.stage2_tlb.domain_faults            0                       # Number of TLB faults due to domain restrictions
system.cpu1.dtb.stage2_mmu.stage2_tlb.flush_entries            0                       # Number of entries that have been flushed from TLB
system.cpu1.dtb.stage2_mmu.stage2_tlb.flush_tlb            0                       # Number of times complete TLB was flushed
system.cpu1.dtb.stage2_mmu.stage2_tlb.flush_tlb_asid            0                       # Number of times TLB was flushed by ASID
system.cpu1.dtb.stage2_mmu.stage2_tlb.flush_tlb_mva            0                       # Number of times TLB was flushed by MVA
system.cpu1.dtb.stage2_mmu.stage2_tlb.flush_tlb_mva_asid            0                       # Number of times TLB was flushed by MVA & ASID
system.cpu1.dtb.stage2_mmu.stage2_tlb.hits            0                       # DTB hits
system.cpu1.dtb.stage2_mmu.stage2_tlb.inst_accesses            0                       # ITB inst accesses
system.cpu1.dtb.stage2_mmu.stage2_tlb.inst_hits            0                       # ITB inst hits
system.cpu1.dtb.stage2_mmu.stage2_tlb.inst_misses            0                       # ITB inst misses
system.cpu1.dtb.stage2_mmu.stage2_tlb.misses            0                       # DTB misses
system.cpu1.dtb.stage2_mmu.stage2_tlb.perms_faults            0                       # Number of TLB faults due to permissions restrictions
system.cpu1.dtb.stage2_mmu.stage2_tlb.prefetch_faults            0                       # Number of TLB faults due to prefetch
system.cpu1.dtb.stage2_mmu.stage2_tlb.read_accesses            0                       # DTB read accesses
system.cpu1.dtb.stage2_mmu.stage2_tlb.read_hits            0                       # DTB read hits
system.cpu1.dtb.stage2_mmu.stage2_tlb.read_misses            0                       # DTB read misses
system.cpu1.dtb.stage2_mmu.stage2_tlb.walker.walkRequestOrigin_Requested::Data            0                       # Table walker requests started/completed, data/inst
system.cpu1.dtb.stage2_mmu.stage2_tlb.walker.walkRequestOrigin_Requested::Inst            0                       # Table walker requests started/completed, data/inst
system.cpu1.dtb.stage2_mmu.stage2_tlb.walker.walkRequestOrigin_Requested::total            0                       # Table walker requests started/completed, data/inst
system.cpu1.dtb.stage2_mmu.stage2_tlb.walker.walkRequestOrigin_Completed::Data            0                       # Table walker requests started/completed, data/inst
system.cpu1.dtb.stage2_mmu.stage2_tlb.walker.walkRequestOrigin_Completed::Inst            0                       # Table walker requests started/completed, data/inst
system.cpu1.dtb.stage2_mmu.stage2_tlb.walker.walkRequestOrigin_Completed::total            0                       # Table walker requests started/completed, data/inst
system.cpu1.dtb.stage2_mmu.stage2_tlb.walker.walkRequestOrigin::total            0                       # Table walker requests started/completed, data/inst
system.cpu1.dtb.stage2_mmu.stage2_tlb.walker.walks            0                       # Table walker walks requested
system.cpu1.dtb.stage2_mmu.stage2_tlb.write_accesses            0                       # DTB write accesses
system.cpu1.dtb.stage2_mmu.stage2_tlb.write_hits            0                       # DTB write hits
system.cpu1.dtb.stage2_mmu.stage2_tlb.write_misses            0                       # DTB write misses
system.cpu1.dtb.walker.walkCompletionTime::samples          114                       # Table walker service (enqueue to completion) latency
system.cpu1.dtb.walker.walkCompletionTime::mean 29931.631579                       # Table walker service (enqueue to completion) latency
system.cpu1.dtb.walker.walkCompletionTime::gmean 20687.705163                       # Table walker service (enqueue to completion) latency
system.cpu1.dtb.walker.walkCompletionTime::stdev 37753.752228                       # Table walker service (enqueue to completion) latency
system.cpu1.dtb.walker.walkCompletionTime::0-16383           56     49.12%     49.12% # Table walker service (enqueue to completion) latency
system.cpu1.dtb.walker.walkCompletionTime::16384-32767           42     36.84%     85.96% # Table walker service (enqueue to completion) latency
system.cpu1.dtb.walker.walkCompletionTime::32768-49151            2      1.75%     87.72% # Table walker service (enqueue to completion) latency
system.cpu1.dtb.walker.walkCompletionTime::98304-114687            6      5.26%     92.98% # Table walker service (enqueue to completion) latency
system.cpu1.dtb.walker.walkCompletionTime::114688-131071            6      5.26%     98.25% # Table walker service (enqueue to completion) latency
system.cpu1.dtb.walker.walkCompletionTime::147456-163839            1      0.88%     99.12% # Table walker service (enqueue to completion) latency
system.cpu1.dtb.walker.walkCompletionTime::245760-262143            1      0.88%    100.00% # Table walker service (enqueue to completion) latency
system.cpu1.dtb.walker.walkCompletionTime::total          114                       # Table walker service (enqueue to completion) latency
system.cpu1.dtb.walker.walkPageSizes::4K          112     98.25%     98.25% # Table walker page sizes translated
system.cpu1.dtb.walker.walkPageSizes::2M            2      1.75%    100.00% # Table walker page sizes translated
system.cpu1.dtb.walker.walkPageSizes::total          114                       # Table walker page sizes translated
system.cpu1.dtb.walker.walkRequestOrigin_Requested::Data          840                       # Table walker requests started/completed, data/inst
system.cpu1.dtb.walker.walkRequestOrigin_Requested::Inst            0                       # Table walker requests started/completed, data/inst
system.cpu1.dtb.walker.walkRequestOrigin_Requested::total          840                       # Table walker requests started/completed, data/inst
system.cpu1.dtb.walker.walkRequestOrigin_Completed::Data          114                       # Table walker requests started/completed, data/inst
system.cpu1.dtb.walker.walkRequestOrigin_Completed::Inst            0                       # Table walker requests started/completed, data/inst
system.cpu1.dtb.walker.walkRequestOrigin_Completed::total          114                       # Table walker requests started/completed, data/inst
system.cpu1.dtb.walker.walkRequestOrigin::total          954                       # Table walker requests started/completed, data/inst
system.cpu1.dtb.walker.walkWaitTime::samples          840                       # Table walker wait (enqueue to first request) latency
system.cpu1.dtb.walker.walkWaitTime::0            840    100.00%    100.00% # Table walker wait (enqueue to first request) latency
system.cpu1.dtb.walker.walkWaitTime::total          840                       # Table walker wait (enqueue to first request) latency
system.cpu1.dtb.walker.walks                      840                       # Table walker walks requested
system.cpu1.dtb.walker.walksLong                  840                       # Table walker walks initiated with long descriptors
system.cpu1.dtb.walker.walksLongTerminationLevel::Level2            2                       # Level at which table walker walks with long descriptors terminate
system.cpu1.dtb.walker.walksLongTerminationLevel::Level3          112                       # Level at which table walker walks with long descriptors terminate
system.cpu1.dtb.write_accesses                  77481                       # DTB write accesses
system.cpu1.dtb.write_hits                      77345                       # DTB write hits
system.cpu1.dtb.write_misses                      136                       # DTB write misses
system.cpu1.fetch2.amo_instructions                 0                       # Number of memory atomic instructions successfully decoded
system.cpu1.fetch2.fp_instructions                  0                       # Number of floating point instructions successfully decoded
system.cpu1.fetch2.int_instructions            390265                       # Number of integer instructions successfully decoded
system.cpu1.fetch2.load_instructions           105986                       # Number of memory load instructions successfully decoded
system.cpu1.fetch2.store_instructions           32293                       # Number of memory store instructions successfully decoded
system.cpu1.fetch2.vec_instructions                17                       # Number of SIMD instructions successfully decoded
system.cpu1.idleCycles                         673146                       # Total number of cycles that the object has spent stopped
system.cpu1.ipc                              0.314710                       # IPC: instructions per cycle
system.cpu1.itb.accesses                       208368                       # DTB accesses
system.cpu1.itb.align_faults                        0                       # Number of TLB faults due to alignment restrictions
system.cpu1.itb.domain_faults                       0                       # Number of TLB faults due to domain restrictions
system.cpu1.itb.flush_entries                       0                       # Number of entries that have been flushed from TLB
system.cpu1.itb.flush_tlb                           0                       # Number of times complete TLB was flushed
system.cpu1.itb.flush_tlb_asid                      3                       # Number of times TLB was flushed by ASID
system.cpu1.itb.flush_tlb_mva                       0                       # Number of times TLB was flushed by MVA
system.cpu1.itb.flush_tlb_mva_asid                136                       # Number of times TLB was flushed by MVA & ASID
system.cpu1.itb.hits                           208217                       # DTB hits
system.cpu1.itb.inst_accesses                  208368                       # ITB inst accesses
system.cpu1.itb.inst_hits                      208217                       # ITB inst hits
system.cpu1.itb.inst_misses                       151                       # ITB inst misses
system.cpu1.itb.misses                            151                       # DTB misses
system.cpu1.itb.perms_faults                      155                       # Number of TLB faults due to permissions restrictions
system.cpu1.itb.prefetch_faults                     0                       # Number of TLB faults due to prefetch
system.cpu1.itb.read_accesses                       0                       # DTB read accesses
system.cpu1.itb.read_hits                           0                       # DTB read hits
system.cpu1.itb.read_misses                         0                       # DTB read misses
system.cpu1.itb.stage2_mmu.stage2_tlb.accesses            0                       # DTB accesses
system.cpu1.itb.stage2_mmu.stage2_tlb.align_faults            0                       # Number of TLB faults due to alignment restrictions
system.cpu1.itb.stage2_mmu.stage2_tlb.domain_faults            0                       # Number of TLB faults due to domain restrictions
system.cpu1.itb.stage2_mmu.stage2_tlb.flush_entries            0                       # Number of entries that have been flushed from TLB
system.cpu1.itb.stage2_mmu.stage2_tlb.flush_tlb            0                       # Number of times complete TLB was flushed
system.cpu1.itb.stage2_mmu.stage2_tlb.flush_tlb_asid            0                       # Number of times TLB was flushed by ASID
system.cpu1.itb.stage2_mmu.stage2_tlb.flush_tlb_mva            0                       # Number of times TLB was flushed by MVA
system.cpu1.itb.stage2_mmu.stage2_tlb.flush_tlb_mva_asid            0                       # Number of times TLB was flushed by MVA & ASID
system.cpu1.itb.stage2_mmu.stage2_tlb.hits            0                       # DTB hits
system.cpu1.itb.stage2_mmu.stage2_tlb.inst_accesses            0                       # ITB inst accesses
system.cpu1.itb.stage2_mmu.stage2_tlb.inst_hits            0                       # ITB inst hits
system.cpu1.itb.stage2_mmu.stage2_tlb.inst_misses            0                       # ITB inst misses
system.cpu1.itb.stage2_mmu.stage2_tlb.misses            0                       # DTB misses
system.cpu1.itb.stage2_mmu.stage2_tlb.perms_faults            0                       # Number of TLB faults due to permissions restrictions
system.cpu1.itb.stage2_mmu.stage2_tlb.prefetch_faults            0                       # Number of TLB faults due to prefetch
system.cpu1.itb.stage2_mmu.stage2_tlb.read_accesses            0                       # DTB read accesses
system.cpu1.itb.stage2_mmu.stage2_tlb.read_hits            0                       # DTB read hits
system.cpu1.itb.stage2_mmu.stage2_tlb.read_misses            0                       # DTB read misses
system.cpu1.itb.stage2_mmu.stage2_tlb.walker.walkRequestOrigin_Requested::Data            0                       # Table walker requests started/completed, data/inst
system.cpu1.itb.stage2_mmu.stage2_tlb.walker.walkRequestOrigin_Requested::Inst            0                       # Table walker requests started/completed, data/inst
system.cpu1.itb.stage2_mmu.stage2_tlb.walker.walkRequestOrigin_Requested::total            0                       # Table walker requests started/completed, data/inst
system.cpu1.itb.stage2_mmu.stage2_tlb.walker.walkRequestOrigin_Completed::Data            0                       # Table walker requests started/completed, data/inst
system.cpu1.itb.stage2_mmu.stage2_tlb.walker.walkRequestOrigin_Completed::Inst            0                       # Table walker requests started/completed, data/inst
system.cpu1.itb.stage2_mmu.stage2_tlb.walker.walkRequestOrigin_Completed::total            0                       # Table walker requests started/completed, data/inst
system.cpu1.itb.stage2_mmu.stage2_tlb.walker.walkRequestOrigin::total            0                       # Table walker requests started/completed, data/inst
system.cpu1.itb.stage2_mmu.stage2_tlb.walker.walks            0                       # Table walker walks requested
system.cpu1.itb.stage2_mmu.stage2_tlb.write_accesses            0                       # DTB write accesses
system.cpu1.itb.stage2_mmu.stage2_tlb.write_hits            0                       # DTB write hits
system.cpu1.itb.stage2_mmu.stage2_tlb.write_misses            0                       # DTB write misses
system.cpu1.itb.walker.walkCompletionTime::samples          127                       # Table walker service (enqueue to completion) latency
system.cpu1.itb.walker.walkCompletionTime::mean 31562.173228                       # Table walker service (enqueue to completion) latency
system.cpu1.itb.walker.walkCompletionTime::gmean 19235.645388                       # Table walker service (enqueue to completion) latency
system.cpu1.itb.walker.walkCompletionTime::stdev 49752.681896                       # Table walker service (enqueue to completion) latency
system.cpu1.itb.walker.walkCompletionTime::0-32767          111     87.40%     87.40% # Table walker service (enqueue to completion) latency
system.cpu1.itb.walker.walkCompletionTime::32768-65535            1      0.79%     88.19% # Table walker service (enqueue to completion) latency
system.cpu1.itb.walker.walkCompletionTime::65536-98303            1      0.79%     88.98% # Table walker service (enqueue to completion) latency
system.cpu1.itb.walker.walkCompletionTime::98304-131071            9      7.09%     96.06% # Table walker service (enqueue to completion) latency
system.cpu1.itb.walker.walkCompletionTime::131072-163839            2      1.57%     97.64% # Table walker service (enqueue to completion) latency
system.cpu1.itb.walker.walkCompletionTime::196608-229375            1      0.79%     98.43% # Table walker service (enqueue to completion) latency
system.cpu1.itb.walker.walkCompletionTime::229376-262143            1      0.79%     99.21% # Table walker service (enqueue to completion) latency
system.cpu1.itb.walker.walkCompletionTime::360448-393215            1      0.79%    100.00% # Table walker service (enqueue to completion) latency
system.cpu1.itb.walker.walkCompletionTime::total          127                       # Table walker service (enqueue to completion) latency
system.cpu1.itb.walker.walkPageSizes::4K          127    100.00%    100.00% # Table walker page sizes translated
system.cpu1.itb.walker.walkPageSizes::total          127                       # Table walker page sizes translated
system.cpu1.itb.walker.walkRequestOrigin_Requested::Data            0                       # Table walker requests started/completed, data/inst
system.cpu1.itb.walker.walkRequestOrigin_Requested::Inst          151                       # Table walker requests started/completed, data/inst
system.cpu1.itb.walker.walkRequestOrigin_Requested::total          151                       # Table walker requests started/completed, data/inst
system.cpu1.itb.walker.walkRequestOrigin_Completed::Data            0                       # Table walker requests started/completed, data/inst
system.cpu1.itb.walker.walkRequestOrigin_Completed::Inst          127                       # Table walker requests started/completed, data/inst
system.cpu1.itb.walker.walkRequestOrigin_Completed::total          127                       # Table walker requests started/completed, data/inst
system.cpu1.itb.walker.walkRequestOrigin::total          278                       # Table walker requests started/completed, data/inst
system.cpu1.itb.walker.walkWaitTime::samples          151                       # Table walker wait (enqueue to first request) latency
system.cpu1.itb.walker.walkWaitTime::0            151    100.00%    100.00% # Table walker wait (enqueue to first request) latency
system.cpu1.itb.walker.walkWaitTime::total          151                       # Table walker wait (enqueue to first request) latency
system.cpu1.itb.walker.walks                      151                       # Table walker walks requested
system.cpu1.itb.walker.walksLong                  151                       # Table walker walks initiated with long descriptors
system.cpu1.itb.walker.walksLongTerminationLevel::Level3          127                       # Level at which table walker walks with long descriptors terminate
system.cpu1.itb.write_accesses                      0                       # DTB write accesses
system.cpu1.itb.write_hits                          0                       # DTB write hits
system.cpu1.itb.write_misses                        0                       # DTB write misses
system.cpu1.kern.inst.arm                           0                       # number of arm instructions executed
system.cpu1.kern.inst.quiesce                       7                       # number of quiesce instructions executed
system.cpu1.numCycles                         1427764                       # number of cpu cycles simulated
system.cpu1.numFetchSuspends                        7                       # Number of times Execute suspended instruction fetching
system.cpu1.numWorkItemsCompleted                   0                       # number of work items this cpu completed
system.cpu1.numWorkItemsStarted                     0                       # number of work items this cpu started
system.cpu1.op_class_0::No_OpClass                  1      0.00%      0.00% # Class of committed instruction
system.cpu1.op_class_0::IntAlu                 361079     67.01%     67.01% # Class of committed instruction
system.cpu1.op_class_0::IntMult                   211      0.04%     67.05% # Class of committed instruction
system.cpu1.op_class_0::IntDiv                     41      0.01%     67.06% # Class of committed instruction
system.cpu1.op_class_0::FloatAdd                    0      0.00%     67.06% # Class of committed instruction
system.cpu1.op_class_0::FloatCmp                    0      0.00%     67.06% # Class of committed instruction
system.cpu1.op_class_0::FloatCvt                    0      0.00%     67.06% # Class of committed instruction
system.cpu1.op_class_0::FloatMult                   0      0.00%     67.06% # Class of committed instruction
system.cpu1.op_class_0::FloatMultAcc                0      0.00%     67.06% # Class of committed instruction
system.cpu1.op_class_0::FloatDiv                    0      0.00%     67.06% # Class of committed instruction
system.cpu1.op_class_0::FloatMisc                   0      0.00%     67.06% # Class of committed instruction
system.cpu1.op_class_0::FloatSqrt                   0      0.00%     67.06% # Class of committed instruction
system.cpu1.op_class_0::SimdAdd                     5      0.00%     67.06% # Class of committed instruction
system.cpu1.op_class_0::SimdAddAcc                  0      0.00%     67.06% # Class of committed instruction
system.cpu1.op_class_0::SimdAlu                     4      0.00%     67.06% # Class of committed instruction
system.cpu1.op_class_0::SimdCmp                     4      0.00%     67.06% # Class of committed instruction
system.cpu1.op_class_0::SimdCvt                     0      0.00%     67.06% # Class of committed instruction
system.cpu1.op_class_0::SimdMisc                    4      0.00%     67.06% # Class of committed instruction
system.cpu1.op_class_0::SimdMult                    0      0.00%     67.06% # Class of committed instruction
system.cpu1.op_class_0::SimdMultAcc                 0      0.00%     67.06% # Class of committed instruction
system.cpu1.op_class_0::SimdShift                   0      0.00%     67.06% # Class of committed instruction
system.cpu1.op_class_0::SimdShiftAcc                0      0.00%     67.06% # Class of committed instruction
system.cpu1.op_class_0::SimdDiv                     0      0.00%     67.06% # Class of committed instruction
system.cpu1.op_class_0::SimdSqrt                    0      0.00%     67.06% # Class of committed instruction
system.cpu1.op_class_0::SimdFloatAdd                0      0.00%     67.06% # Class of committed instruction
system.cpu1.op_class_0::SimdFloatAlu                0      0.00%     67.06% # Class of committed instruction
system.cpu1.op_class_0::SimdFloatCmp                0      0.00%     67.06% # Class of committed instruction
system.cpu1.op_class_0::SimdFloatCvt                0      0.00%     67.06% # Class of committed instruction
system.cpu1.op_class_0::SimdFloatDiv                0      0.00%     67.06% # Class of committed instruction
system.cpu1.op_class_0::SimdFloatMisc               0      0.00%     67.06% # Class of committed instruction
system.cpu1.op_class_0::SimdFloatMult               0      0.00%     67.06% # Class of committed instruction
system.cpu1.op_class_0::SimdFloatMultAcc            0      0.00%     67.06% # Class of committed instruction
system.cpu1.op_class_0::SimdFloatSqrt               0      0.00%     67.06% # Class of committed instruction
system.cpu1.op_class_0::SimdReduceAdd               0      0.00%     67.06% # Class of committed instruction
system.cpu1.op_class_0::SimdReduceAlu               0      0.00%     67.06% # Class of committed instruction
system.cpu1.op_class_0::SimdReduceCmp               0      0.00%     67.06% # Class of committed instruction
system.cpu1.op_class_0::SimdFloatReduceAdd            0      0.00%     67.06% # Class of committed instruction
system.cpu1.op_class_0::SimdFloatReduceCmp            0      0.00%     67.06% # Class of committed instruction
system.cpu1.op_class_0::SimdAes                     0      0.00%     67.06% # Class of committed instruction
system.cpu1.op_class_0::SimdAesMix                  0      0.00%     67.06% # Class of committed instruction
system.cpu1.op_class_0::SimdSha1Hash                0      0.00%     67.06% # Class of committed instruction
system.cpu1.op_class_0::SimdSha1Hash2               0      0.00%     67.06% # Class of committed instruction
system.cpu1.op_class_0::SimdSha256Hash              0      0.00%     67.06% # Class of committed instruction
system.cpu1.op_class_0::SimdSha256Hash2             0      0.00%     67.06% # Class of committed instruction
system.cpu1.op_class_0::SimdShaSigma2               0      0.00%     67.06% # Class of committed instruction
system.cpu1.op_class_0::SimdShaSigma3               0      0.00%     67.06% # Class of committed instruction
system.cpu1.op_class_0::SimdPredAlu                 0      0.00%     67.06% # Class of committed instruction
system.cpu1.op_class_0::MemRead                100752     18.70%     85.76% # Class of committed instruction
system.cpu1.op_class_0::MemWrite                76746     14.24%    100.00% # Class of committed instruction
system.cpu1.op_class_0::FloatMemRead                0      0.00%    100.00% # Class of committed instruction
system.cpu1.op_class_0::FloatMemWrite               0      0.00%    100.00% # Class of committed instruction
system.cpu1.op_class_0::IprAccess                   0      0.00%    100.00% # Class of committed instruction
system.cpu1.op_class_0::InstPrefetch                0      0.00%    100.00% # Class of committed instruction
system.cpu1.op_class_0::total                  538847                       # Class of committed instruction
system.cpu1.quiesceCycles                    12628673                       # Total number of cycles that CPU has spent quiesced or waiting for an interrupt
system.cpu1.tickCycles                         754618                       # Number of cycles that the object actually ticked
system.cpu2.branchPred.BTBCorrect                   0                       # Number of correct BTB predictions (this stat may not work properly.
system.cpu2.branchPred.BTBHitPct            35.575076                       # BTB Hit Percentage
system.cpu2.branchPred.BTBHits                 326338                       # Number of BTB hits
system.cpu2.branchPred.BTBLookups              917322                       # Number of BTB lookups
system.cpu2.branchPred.RASInCorrect             10939                       # Number of incorrect RAS predictions.
system.cpu2.branchPred.condIncorrect           145809                       # Number of conditional branches incorrect
system.cpu2.branchPred.condPredicted           633768                       # Number of conditional branches predicted
system.cpu2.branchPred.indirectHits              8414                       # Number of indirect target hits.
system.cpu2.branchPred.indirectLookups          11637                       # Number of indirect predictor lookups.
system.cpu2.branchPred.indirectMisses            3223                       # Number of indirect misses.
system.cpu2.branchPred.lookups                1244606                       # Number of BP lookups
system.cpu2.branchPred.usedRAS                 276847                       # Number of times the RAS was used to get a target.
system.cpu2.branchPredindirectMispredicted         1233                       # Number of mispredicted indirect branches.
system.cpu2.committedInsts                    4363533                       # Number of instructions committed
system.cpu2.committedOps                      5275658                       # Number of ops (including micro ops) committed
system.cpu2.cpi                              2.154530                       # CPI: cycles per instruction
system.cpu2.dcache.prefetcher.num_hwpf_issued         2579                       # number of hwpf issued
system.cpu2.dcache.prefetcher.pfBufferHit         2145                       # number of redundant prefetches already in prefetch queue
system.cpu2.dcache.prefetcher.pfIdentified         7016                       # number of prefetch candidates identified
system.cpu2.dcache.prefetcher.pfInCache             0                       # number of redundant prefetches already in cache/mshr dropped
system.cpu2.dcache.prefetcher.pfRemovedFull          341                       # number of prefetches dropped due to prefetch queue size
system.cpu2.dcache.prefetcher.pfSpanPage          520                       # number of prefetches that crossed the page
system.cpu2.discardedOps                       560136                       # Number of ops (including micro ops) which were discarded before commit
system.cpu2.dtb.accesses                      1897860                       # DTB accesses
system.cpu2.dtb.align_faults                        4                       # Number of TLB faults due to alignment restrictions
system.cpu2.dtb.domain_faults                       0                       # Number of TLB faults due to domain restrictions
system.cpu2.dtb.flush_entries                      11                       # Number of entries that have been flushed from TLB
system.cpu2.dtb.flush_tlb                           0                       # Number of times complete TLB was flushed
system.cpu2.dtb.flush_tlb_asid                      3                       # Number of times TLB was flushed by ASID
system.cpu2.dtb.flush_tlb_mva                       0                       # Number of times TLB was flushed by MVA
system.cpu2.dtb.flush_tlb_mva_asid                136                       # Number of times TLB was flushed by MVA & ASID
system.cpu2.dtb.hits                          1894010                       # DTB hits
system.cpu2.dtb.inst_accesses                       0                       # ITB inst accesses
system.cpu2.dtb.inst_hits                           0                       # ITB inst hits
system.cpu2.dtb.inst_misses                         0                       # ITB inst misses
system.cpu2.dtb.misses                           3850                       # DTB misses
system.cpu2.dtb.perms_faults                      135                       # Number of TLB faults due to permissions restrictions
system.cpu2.dtb.prefetch_faults                    80                       # Number of TLB faults due to prefetch
system.cpu2.dtb.read_accesses                 1056582                       # DTB read accesses
system.cpu2.dtb.read_hits                     1053273                       # DTB read hits
system.cpu2.dtb.read_misses                      3309                       # DTB read misses
system.cpu2.dtb.stage2_mmu.stage2_tlb.accesses            0                       # DTB accesses
system.cpu2.dtb.stage2_mmu.stage2_tlb.align_faults            0                       # Number of TLB faults due to alignment restrictions
system.cpu2.dtb.stage2_mmu.stage2_tlb.domain_faults            0                       # Number of TLB faults due to domain restrictions
system.cpu2.dtb.stage2_mmu.stage2_tlb.flush_entries            0                       # Number of entries that have been flushed from TLB
system.cpu2.dtb.stage2_mmu.stage2_tlb.flush_tlb            0                       # Number of times complete TLB was flushed
system.cpu2.dtb.stage2_mmu.stage2_tlb.flush_tlb_asid            0                       # Number of times TLB was flushed by ASID
system.cpu2.dtb.stage2_mmu.stage2_tlb.flush_tlb_mva            0                       # Number of times TLB was flushed by MVA
system.cpu2.dtb.stage2_mmu.stage2_tlb.flush_tlb_mva_asid            0                       # Number of times TLB was flushed by MVA & ASID
system.cpu2.dtb.stage2_mmu.stage2_tlb.hits            0                       # DTB hits
system.cpu2.dtb.stage2_mmu.stage2_tlb.inst_accesses            0                       # ITB inst accesses
system.cpu2.dtb.stage2_mmu.stage2_tlb.inst_hits            0                       # ITB inst hits
system.cpu2.dtb.stage2_mmu.stage2_tlb.inst_misses            0                       # ITB inst misses
system.cpu2.dtb.stage2_mmu.stage2_tlb.misses            0                       # DTB misses
system.cpu2.dtb.stage2_mmu.stage2_tlb.perms_faults            0                       # Number of TLB faults due to permissions restrictions
system.cpu2.dtb.stage2_mmu.stage2_tlb.prefetch_faults            0                       # Number of TLB faults due to prefetch
system.cpu2.dtb.stage2_mmu.stage2_tlb.read_accesses            0                       # DTB read accesses
system.cpu2.dtb.stage2_mmu.stage2_tlb.read_hits            0                       # DTB read hits
system.cpu2.dtb.stage2_mmu.stage2_tlb.read_misses            0                       # DTB read misses
system.cpu2.dtb.stage2_mmu.stage2_tlb.walker.walkRequestOrigin_Requested::Data            0                       # Table walker requests started/completed, data/inst
system.cpu2.dtb.stage2_mmu.stage2_tlb.walker.walkRequestOrigin_Requested::Inst            0                       # Table walker requests started/completed, data/inst
system.cpu2.dtb.stage2_mmu.stage2_tlb.walker.walkRequestOrigin_Requested::total            0                       # Table walker requests started/completed, data/inst
system.cpu2.dtb.stage2_mmu.stage2_tlb.walker.walkRequestOrigin_Completed::Data            0                       # Table walker requests started/completed, data/inst
system.cpu2.dtb.stage2_mmu.stage2_tlb.walker.walkRequestOrigin_Completed::Inst            0                       # Table walker requests started/completed, data/inst
system.cpu2.dtb.stage2_mmu.stage2_tlb.walker.walkRequestOrigin_Completed::total            0                       # Table walker requests started/completed, data/inst
system.cpu2.dtb.stage2_mmu.stage2_tlb.walker.walkRequestOrigin::total            0                       # Table walker requests started/completed, data/inst
system.cpu2.dtb.stage2_mmu.stage2_tlb.walker.walks            0                       # Table walker walks requested
system.cpu2.dtb.stage2_mmu.stage2_tlb.write_accesses            0                       # DTB write accesses
system.cpu2.dtb.stage2_mmu.stage2_tlb.write_hits            0                       # DTB write hits
system.cpu2.dtb.stage2_mmu.stage2_tlb.write_misses            0                       # DTB write misses
system.cpu2.dtb.walker.walkCompletionTime::samples          189                       # Table walker service (enqueue to completion) latency
system.cpu2.dtb.walker.walkCompletionTime::mean 36319.555556                       # Table walker service (enqueue to completion) latency
system.cpu2.dtb.walker.walkCompletionTime::gmean 22396.352809                       # Table walker service (enqueue to completion) latency
system.cpu2.dtb.walker.walkCompletionTime::stdev 47158.677154                       # Table walker service (enqueue to completion) latency
system.cpu2.dtb.walker.walkCompletionTime::0-32767          154     81.48%     81.48% # Table walker service (enqueue to completion) latency
system.cpu2.dtb.walker.walkCompletionTime::32768-65535            3      1.59%     83.07% # Table walker service (enqueue to completion) latency
system.cpu2.dtb.walker.walkCompletionTime::98304-131071           24     12.70%     95.77% # Table walker service (enqueue to completion) latency
system.cpu2.dtb.walker.walkCompletionTime::131072-163839            3      1.59%     97.35% # Table walker service (enqueue to completion) latency
system.cpu2.dtb.walker.walkCompletionTime::163840-196607            2      1.06%     98.41% # Table walker service (enqueue to completion) latency
system.cpu2.dtb.walker.walkCompletionTime::196608-229375            2      1.06%     99.47% # Table walker service (enqueue to completion) latency
system.cpu2.dtb.walker.walkCompletionTime::262144-294911            1      0.53%    100.00% # Table walker service (enqueue to completion) latency
system.cpu2.dtb.walker.walkCompletionTime::total          189                       # Table walker service (enqueue to completion) latency
system.cpu2.dtb.walker.walkPageSizes::4K          185     97.88%     97.88% # Table walker page sizes translated
system.cpu2.dtb.walker.walkPageSizes::2M            4      2.12%    100.00% # Table walker page sizes translated
system.cpu2.dtb.walker.walkPageSizes::total          189                       # Table walker page sizes translated
system.cpu2.dtb.walker.walkRequestOrigin_Requested::Data         3850                       # Table walker requests started/completed, data/inst
system.cpu2.dtb.walker.walkRequestOrigin_Requested::Inst            0                       # Table walker requests started/completed, data/inst
system.cpu2.dtb.walker.walkRequestOrigin_Requested::total         3850                       # Table walker requests started/completed, data/inst
system.cpu2.dtb.walker.walkRequestOrigin_Completed::Data          189                       # Table walker requests started/completed, data/inst
system.cpu2.dtb.walker.walkRequestOrigin_Completed::Inst            0                       # Table walker requests started/completed, data/inst
system.cpu2.dtb.walker.walkRequestOrigin_Completed::total          189                       # Table walker requests started/completed, data/inst
system.cpu2.dtb.walker.walkRequestOrigin::total         4039                       # Table walker requests started/completed, data/inst
system.cpu2.dtb.walker.walkWaitTime::samples         3850                       # Table walker wait (enqueue to first request) latency
system.cpu2.dtb.walker.walkWaitTime::0           3850    100.00%    100.00% # Table walker wait (enqueue to first request) latency
system.cpu2.dtb.walker.walkWaitTime::total         3850                       # Table walker wait (enqueue to first request) latency
system.cpu2.dtb.walker.walks                     3850                       # Table walker walks requested
system.cpu2.dtb.walker.walksLong                 3850                       # Table walker walks initiated with long descriptors
system.cpu2.dtb.walker.walksLongTerminationLevel::Level2            4                       # Level at which table walker walks with long descriptors terminate
system.cpu2.dtb.walker.walksLongTerminationLevel::Level3          185                       # Level at which table walker walks with long descriptors terminate
system.cpu2.dtb.write_accesses                 841278                       # DTB write accesses
system.cpu2.dtb.write_hits                     840737                       # DTB write hits
system.cpu2.dtb.write_misses                      541                       # DTB write misses
system.cpu2.fetch2.amo_instructions                 0                       # Number of memory atomic instructions successfully decoded
system.cpu2.fetch2.fp_instructions                  0                       # Number of floating point instructions successfully decoded
system.cpu2.fetch2.int_instructions           3917192                       # Number of integer instructions successfully decoded
system.cpu2.fetch2.load_instructions           985858                       # Number of memory load instructions successfully decoded
system.cpu2.fetch2.store_instructions          432974                       # Number of memory store instructions successfully decoded
system.cpu2.fetch2.vec_instructions                 0                       # Number of SIMD instructions successfully decoded
system.cpu2.idleCycles                        2376262                       # Total number of cycles that the object has spent stopped
system.cpu2.ipc                              0.464138                       # IPC: instructions per cycle
system.cpu2.itb.accesses                      2082447                       # DTB accesses
system.cpu2.itb.align_faults                        0                       # Number of TLB faults due to alignment restrictions
system.cpu2.itb.domain_faults                       0                       # Number of TLB faults due to domain restrictions
system.cpu2.itb.flush_entries                       6                       # Number of entries that have been flushed from TLB
system.cpu2.itb.flush_tlb                           0                       # Number of times complete TLB was flushed
system.cpu2.itb.flush_tlb_asid                      3                       # Number of times TLB was flushed by ASID
system.cpu2.itb.flush_tlb_mva                       0                       # Number of times TLB was flushed by MVA
system.cpu2.itb.flush_tlb_mva_asid                136                       # Number of times TLB was flushed by MVA & ASID
system.cpu2.itb.hits                          2079612                       # DTB hits
system.cpu2.itb.inst_accesses                 2082447                       # ITB inst accesses
system.cpu2.itb.inst_hits                     2079612                       # ITB inst hits
system.cpu2.itb.inst_misses                      2835                       # ITB inst misses
system.cpu2.itb.misses                           2835                       # DTB misses
system.cpu2.itb.perms_faults                      195                       # Number of TLB faults due to permissions restrictions
system.cpu2.itb.prefetch_faults                     0                       # Number of TLB faults due to prefetch
system.cpu2.itb.read_accesses                       0                       # DTB read accesses
system.cpu2.itb.read_hits                           0                       # DTB read hits
system.cpu2.itb.read_misses                         0                       # DTB read misses
system.cpu2.itb.stage2_mmu.stage2_tlb.accesses            0                       # DTB accesses
system.cpu2.itb.stage2_mmu.stage2_tlb.align_faults            0                       # Number of TLB faults due to alignment restrictions
system.cpu2.itb.stage2_mmu.stage2_tlb.domain_faults            0                       # Number of TLB faults due to domain restrictions
system.cpu2.itb.stage2_mmu.stage2_tlb.flush_entries            0                       # Number of entries that have been flushed from TLB
system.cpu2.itb.stage2_mmu.stage2_tlb.flush_tlb            0                       # Number of times complete TLB was flushed
system.cpu2.itb.stage2_mmu.stage2_tlb.flush_tlb_asid            0                       # Number of times TLB was flushed by ASID
system.cpu2.itb.stage2_mmu.stage2_tlb.flush_tlb_mva            0                       # Number of times TLB was flushed by MVA
system.cpu2.itb.stage2_mmu.stage2_tlb.flush_tlb_mva_asid            0                       # Number of times TLB was flushed by MVA & ASID
system.cpu2.itb.stage2_mmu.stage2_tlb.hits            0                       # DTB hits
system.cpu2.itb.stage2_mmu.stage2_tlb.inst_accesses            0                       # ITB inst accesses
system.cpu2.itb.stage2_mmu.stage2_tlb.inst_hits            0                       # ITB inst hits
system.cpu2.itb.stage2_mmu.stage2_tlb.inst_misses            0                       # ITB inst misses
system.cpu2.itb.stage2_mmu.stage2_tlb.misses            0                       # DTB misses
system.cpu2.itb.stage2_mmu.stage2_tlb.perms_faults            0                       # Number of TLB faults due to permissions restrictions
system.cpu2.itb.stage2_mmu.stage2_tlb.prefetch_faults            0                       # Number of TLB faults due to prefetch
system.cpu2.itb.stage2_mmu.stage2_tlb.read_accesses            0                       # DTB read accesses
system.cpu2.itb.stage2_mmu.stage2_tlb.read_hits            0                       # DTB read hits
system.cpu2.itb.stage2_mmu.stage2_tlb.read_misses            0                       # DTB read misses
system.cpu2.itb.stage2_mmu.stage2_tlb.walker.walkRequestOrigin_Requested::Data            0                       # Table walker requests started/completed, data/inst
system.cpu2.itb.stage2_mmu.stage2_tlb.walker.walkRequestOrigin_Requested::Inst            0                       # Table walker requests started/completed, data/inst
system.cpu2.itb.stage2_mmu.stage2_tlb.walker.walkRequestOrigin_Requested::total            0                       # Table walker requests started/completed, data/inst
system.cpu2.itb.stage2_mmu.stage2_tlb.walker.walkRequestOrigin_Completed::Data            0                       # Table walker requests started/completed, data/inst
system.cpu2.itb.stage2_mmu.stage2_tlb.walker.walkRequestOrigin_Completed::Inst            0                       # Table walker requests started/completed, data/inst
system.cpu2.itb.stage2_mmu.stage2_tlb.walker.walkRequestOrigin_Completed::total            0                       # Table walker requests started/completed, data/inst
system.cpu2.itb.stage2_mmu.stage2_tlb.walker.walkRequestOrigin::total            0                       # Table walker requests started/completed, data/inst
system.cpu2.itb.stage2_mmu.stage2_tlb.walker.walks            0                       # Table walker walks requested
system.cpu2.itb.stage2_mmu.stage2_tlb.write_accesses            0                       # DTB write accesses
system.cpu2.itb.stage2_mmu.stage2_tlb.write_hits            0                       # DTB write hits
system.cpu2.itb.stage2_mmu.stage2_tlb.write_misses            0                       # DTB write misses
system.cpu2.itb.walker.walkCompletionTime::samples          261                       # Table walker service (enqueue to completion) latency
system.cpu2.itb.walker.walkCompletionTime::mean 37390.620690                       # Table walker service (enqueue to completion) latency
system.cpu2.itb.walker.walkCompletionTime::gmean 22856.238897                       # Table walker service (enqueue to completion) latency
system.cpu2.itb.walker.walkCompletionTime::stdev 44678.565956                       # Table walker service (enqueue to completion) latency
system.cpu2.itb.walker.walkCompletionTime::0-32767          206     78.93%     78.93% # Table walker service (enqueue to completion) latency
system.cpu2.itb.walker.walkCompletionTime::32768-65535            3      1.15%     80.08% # Table walker service (enqueue to completion) latency
system.cpu2.itb.walker.walkCompletionTime::65536-98303            3      1.15%     81.23% # Table walker service (enqueue to completion) latency
system.cpu2.itb.walker.walkCompletionTime::98304-131071           40     15.33%     96.55% # Table walker service (enqueue to completion) latency
system.cpu2.itb.walker.walkCompletionTime::131072-163839            5      1.92%     98.47% # Table walker service (enqueue to completion) latency
system.cpu2.itb.walker.walkCompletionTime::163840-196607            1      0.38%     98.85% # Table walker service (enqueue to completion) latency
system.cpu2.itb.walker.walkCompletionTime::196608-229375            2      0.77%     99.62% # Table walker service (enqueue to completion) latency
system.cpu2.itb.walker.walkCompletionTime::262144-294911            1      0.38%    100.00% # Table walker service (enqueue to completion) latency
system.cpu2.itb.walker.walkCompletionTime::total          261                       # Table walker service (enqueue to completion) latency
system.cpu2.itb.walker.walkPageSizes::4K          261    100.00%    100.00% # Table walker page sizes translated
system.cpu2.itb.walker.walkPageSizes::total          261                       # Table walker page sizes translated
system.cpu2.itb.walker.walkRequestOrigin_Requested::Data            0                       # Table walker requests started/completed, data/inst
system.cpu2.itb.walker.walkRequestOrigin_Requested::Inst         2835                       # Table walker requests started/completed, data/inst
system.cpu2.itb.walker.walkRequestOrigin_Requested::total         2835                       # Table walker requests started/completed, data/inst
[...]
system.cpu1.dcache.WriteReq_miss_rate::total     0.027616                       # miss rate for WriteReq accesses
system.cpu1.dcache.WriteReq_avg_miss_latency::.cpu1.data 49777.284884                       # average WriteReq miss latency
system.cpu1.dcache.WriteReq_avg_miss_latency::total 49777.284884                       # average WriteReq miss latency
system.cpu1.dcache.WriteReq_mshr_hits::.cpu1.data         1727                       # number of WriteReq MSHR hits
system.cpu1.dcache.WriteReq_mshr_hits::total         1727                       # number of WriteReq MSHR hits
system.cpu1.dcache.WriteReq_mshr_misses::.cpu1.data         2401                       # number of WriteReq MSHR misses
system.cpu1.dcache.WriteReq_mshr_misses::total         2401                       # number of WriteReq MSHR misses
system.cpu1.dcache.WriteReq_mshr_uncacheable::.cpu1.data            6                       # number of WriteReq MSHR uncacheable
system.cpu1.dcache.WriteReq_mshr_uncacheable::total            6                       # number of WriteReq MSHR uncacheable
system.cpu1.dcache.WriteReq_mshr_miss_latency::.cpu1.data    112527828                       # number of WriteReq MSHR miss cycles
system.cpu1.dcache.WriteReq_mshr_miss_latency::total    112527828                       # number of WriteReq MSHR miss cycles
system.cpu1.dcache.WriteReq_mshr_miss_rate::.cpu1.data     0.016062                       # mshr miss rate for WriteReq accesses
system.cpu1.dcache.WriteReq_mshr_miss_rate::total     0.016062                       # mshr miss rate for WriteReq accesses
system.cpu1.dcache.WriteReq_avg_mshr_miss_latency::.cpu1.data 46867.067055                       # average WriteReq mshr miss latency
system.cpu1.dcache.WriteReq_avg_mshr_miss_latency::total 46867.067055                       # average WriteReq mshr miss latency
system.cpu1.dcache.SoftPFReq_hits::.cpu1.data            8                       # number of SoftPFReq hits
system.cpu1.dcache.SoftPFReq_hits::total            8                       # number of SoftPFReq hits
system.cpu1.dcache.SoftPFReq_misses::.cpu1.data           47                       # number of SoftPFReq misses
system.cpu1.dcache.SoftPFReq_misses::total           47                       # number of SoftPFReq misses
system.cpu1.dcache.SoftPFReq_accesses::.cpu1.data           55                       # number of SoftPFReq accesses(hits+misses)
system.cpu1.dcache.SoftPFReq_accesses::total           55                       # number of SoftPFReq accesses(hits+misses)
system.cpu1.dcache.SoftPFReq_miss_rate::.cpu1.data     0.854545                       # miss rate for SoftPFReq accesses
system.cpu1.dcache.SoftPFReq_miss_rate::total     0.854545                       # miss rate for SoftPFReq accesses
system.cpu1.dcache.SoftPFReq_mshr_misses::.cpu1.data           47                       # number of SoftPFReq MSHR misses
system.cpu1.dcache.SoftPFReq_mshr_misses::total           47                       # number of SoftPFReq MSHR misses
system.cpu1.dcache.SoftPFReq_mshr_miss_latency::.cpu1.data      3692808                       # number of SoftPFReq MSHR miss cycles
system.cpu1.dcache.SoftPFReq_mshr_miss_latency::total      3692808                       # number of SoftPFReq MSHR miss cycles
system.cpu1.dcache.SoftPFReq_mshr_miss_rate::.cpu1.data     0.854545                       # mshr miss rate for SoftPFReq accesses
system.cpu1.dcache.SoftPFReq_mshr_miss_rate::total     0.854545                       # mshr miss rate for SoftPFReq accesses
system.cpu1.dcache.SoftPFReq_avg_mshr_miss_latency::.cpu1.data 78570.382979                       # average SoftPFReq mshr miss latency
system.cpu1.dcache.SoftPFReq_avg_mshr_miss_latency::total 78570.382979                       # average SoftPFReq mshr miss latency
system.cpu1.dcache.SoftPFExReq_hits::.cpu1.data         9073                       # number of SoftPFExReq hits
system.cpu1.dcache.SoftPFExReq_hits::total         9073                       # number of SoftPFExReq hits
system.cpu1.dcache.SoftPFExReq_misses::.cpu1.data          408                       # number of SoftPFExReq misses
system.cpu1.dcache.SoftPFExReq_misses::total          408                       # number of SoftPFExReq misses
system.cpu1.dcache.SoftPFExReq_accesses::.cpu1.data         9481                       # number of SoftPFExReq accesses(hits+misses)
system.cpu1.dcache.SoftPFExReq_accesses::total         9481                       # number of SoftPFExReq accesses(hits+misses)
system.cpu1.dcache.SoftPFExReq_miss_rate::.cpu1.data     0.043033                       # miss rate for SoftPFExReq accesses
system.cpu1.dcache.SoftPFExReq_miss_rate::total     0.043033                       # miss rate for SoftPFExReq accesses
system.cpu1.dcache.SoftPFExReq_mshr_misses::.cpu1.data          399                       # number of SoftPFExReq MSHR misses
system.cpu1.dcache.SoftPFExReq_mshr_misses::total          399                       # number of SoftPFExReq MSHR misses
system.cpu1.dcache.SoftPFExReq_mshr_miss_latency::.cpu1.data      8846460                       # number of SoftPFExReq MSHR miss cycles
system.cpu1.dcache.SoftPFExReq_mshr_miss_latency::total      8846460                       # number of SoftPFExReq MSHR miss cycles
system.cpu1.dcache.SoftPFExReq_mshr_miss_rate::.cpu1.data     0.042084                       # mshr miss rate for SoftPFExReq accesses
system.cpu1.dcache.SoftPFExReq_mshr_miss_rate::total     0.042084                       # mshr miss rate for SoftPFExReq accesses
system.cpu1.dcache.SoftPFExReq_avg_mshr_miss_latency::.cpu1.data 22171.578947                       # average SoftPFExReq mshr miss latency
system.cpu1.dcache.SoftPFExReq_avg_mshr_miss_latency::total 22171.578947                       # average SoftPFExReq mshr miss latency
system.cpu1.dcache.HardPFReq_mshr_misses::.cpu1.dcache.prefetcher         2859                       # number of HardPFReq MSHR misses
system.cpu1.dcache.HardPFReq_mshr_misses::total         2859                       # number of HardPFReq MSHR misses
system.cpu1.dcache.HardPFReq_mshr_miss_latency::.cpu1.dcache.prefetcher    178618416                       # number of HardPFReq MSHR miss cycles
system.cpu1.dcache.HardPFReq_mshr_miss_latency::total    178618416                       # number of HardPFReq MSHR miss cycles
system.cpu1.dcache.HardPFReq_mshr_miss_rate::.cpu1.dcache.prefetcher          inf                       # mshr miss rate for HardPFReq accesses
system.cpu1.dcache.HardPFReq_mshr_miss_rate::total          inf                       # mshr miss rate for HardPFReq accesses
system.cpu1.dcache.HardPFReq_avg_mshr_miss_latency::.cpu1.dcache.prefetcher 62475.836306                       # average HardPFReq mshr miss latency
system.cpu1.dcache.HardPFReq_avg_mshr_miss_latency::total 62475.836306                       # average HardPFReq mshr miss latency
system.cpu1.dcache.WriteLineReq_hits::.cpu1.data          140                       # number of WriteLineReq hits
system.cpu1.dcache.WriteLineReq_hits::total          140                       # number of WriteLineReq hits
system.cpu1.dcache.WriteLineReq_misses::.cpu1.data         2034                       # number of WriteLineReq misses
system.cpu1.dcache.WriteLineReq_misses::total         2034                       # number of WriteLineReq misses
system.cpu1.dcache.WriteLineReq_miss_latency::.cpu1.data     91945346                       # number of WriteLineReq miss cycles
system.cpu1.dcache.WriteLineReq_miss_latency::total     91945346                       # number of WriteLineReq miss cycles
system.cpu1.dcache.WriteLineReq_accesses::.cpu1.data         2174                       # number of WriteLineReq accesses(hits+misses)
system.cpu1.dcache.WriteLineReq_accesses::total         2174                       # number of WriteLineReq accesses(hits+misses)
system.cpu1.dcache.WriteLineReq_miss_rate::.cpu1.data     0.935603                       # miss rate for WriteLineReq accesses
system.cpu1.dcache.WriteLineReq_miss_rate::total     0.935603                       # miss rate for WriteLineReq accesses
system.cpu1.dcache.WriteLineReq_avg_miss_latency::.cpu1.data 45204.201573                       # average WriteLineReq miss latency
system.cpu1.dcache.WriteLineReq_avg_miss_latency::total 45204.201573                       # average WriteLineReq miss latency
system.cpu1.dcache.WriteLineReq_mshr_hits::.cpu1.data         1192                       # number of WriteLineReq MSHR hits
system.cpu1.dcache.WriteLineReq_mshr_hits::total         1192                       # number of WriteLineReq MSHR hits
system.cpu1.dcache.WriteLineReq_mshr_misses::.cpu1.data          842                       # number of WriteLineReq MSHR misses
system.cpu1.dcache.WriteLineReq_mshr_misses::total          842                       # number of WriteLineReq MSHR misses
system.cpu1.dcache.WriteLineReq_mshr_miss_latency::.cpu1.data     16857536                       # number of WriteLineReq MSHR miss cycles
system.cpu1.dcache.WriteLineReq_mshr_miss_latency::total     16857536                       # number of WriteLineReq MSHR miss cycles
system.cpu1.dcache.WriteLineReq_mshr_miss_rate::.cpu1.data     0.387305                       # mshr miss rate for WriteLineReq accesses
system.cpu1.dcache.WriteLineReq_mshr_miss_rate::total     0.387305                       # mshr miss rate for WriteLineReq accesses
system.cpu1.dcache.WriteLineReq_avg_mshr_miss_latency::.cpu1.data 20020.826603                       # average WriteLineReq mshr miss latency
system.cpu1.dcache.WriteLineReq_avg_mshr_miss_latency::total 20020.826603                       # average WriteLineReq mshr miss latency
system.cpu1.dcache.LoadLockedReq_hits::.cpu1.data         8742                       # number of LoadLockedReq hits
system.cpu1.dcache.LoadLockedReq_hits::total         8742                       # number of LoadLockedReq hits
system.cpu1.dcache.LoadLockedReq_misses::.cpu1.data          343                       # number of LoadLockedReq misses
system.cpu1.dcache.LoadLockedReq_misses::total          343                       # number of LoadLockedReq misses
system.cpu1.dcache.LoadLockedReq_miss_latency::.cpu1.data      8425914                       # number of LoadLockedReq miss cycles
system.cpu1.dcache.LoadLockedReq_miss_latency::total      8425914                       # number of LoadLockedReq miss cycles
system.cpu1.dcache.LoadLockedReq_accesses::.cpu1.data         9085                       # number of LoadLockedReq accesses(hits+misses)
system.cpu1.dcache.LoadLockedReq_accesses::total         9085                       # number of LoadLockedReq accesses(hits+misses)
system.cpu1.dcache.LoadLockedReq_miss_rate::.cpu1.data     0.037755                       # miss rate for LoadLockedReq accesses
system.cpu1.dcache.LoadLockedReq_miss_rate::total     0.037755                       # miss rate for LoadLockedReq accesses
system.cpu1.dcache.LoadLockedReq_avg_miss_latency::.cpu1.data 24565.346939                       # average LoadLockedReq miss latency
system.cpu1.dcache.LoadLockedReq_avg_miss_latency::total 24565.346939                       # average LoadLockedReq miss latency
system.cpu1.dcache.LoadLockedReq_mshr_hits::.cpu1.data          291                       # number of LoadLockedReq MSHR hits
system.cpu1.dcache.LoadLockedReq_mshr_hits::total          291                       # number of LoadLockedReq MSHR hits
system.cpu1.dcache.LoadLockedReq_mshr_misses::.cpu1.data           52                       # number of LoadLockedReq MSHR misses
system.cpu1.dcache.LoadLockedReq_mshr_misses::total           52                       # number of LoadLockedReq MSHR misses
system.cpu1.dcache.LoadLockedReq_mshr_miss_latency::.cpu1.data      1683612                       # number of LoadLockedReq MSHR miss cycles
system.cpu1.dcache.LoadLockedReq_mshr_miss_latency::total      1683612                       # number of LoadLockedReq MSHR miss cycles
system.cpu1.dcache.LoadLockedReq_mshr_miss_rate::.cpu1.data     0.005724                       # mshr miss rate for LoadLockedReq accesses
system.cpu1.dcache.LoadLockedReq_mshr_miss_rate::total     0.005724                       # mshr miss rate for LoadLockedReq accesses
system.cpu1.dcache.LoadLockedReq_avg_mshr_miss_latency::.cpu1.data 32377.153846                       # average LoadLockedReq mshr miss latency
system.cpu1.dcache.LoadLockedReq_avg_mshr_miss_latency::total 32377.153846                       # average LoadLockedReq mshr miss latency
system.cpu1.dcache.StoreCondReq_hits::.cpu1.data         9075                       # number of StoreCondReq hits
system.cpu1.dcache.StoreCondReq_hits::total         9075                       # number of StoreCondReq hits
system.cpu1.dcache.StoreCondReq_misses::.cpu1.data            2                       # number of StoreCondReq misses
system.cpu1.dcache.StoreCondReq_misses::total            2                       # number of StoreCondReq misses
system.cpu1.dcache.StoreCondReq_miss_latency::.cpu1.data        17136                       # number of StoreCondReq miss cycles
system.cpu1.dcache.StoreCondReq_miss_latency::total        17136                       # number of StoreCondReq miss cycles
system.cpu1.dcache.StoreCondReq_accesses::.cpu1.data         9077                       # number of StoreCondReq accesses(hits+misses)
system.cpu1.dcache.StoreCondReq_accesses::total         9077                       # number of StoreCondReq accesses(hits+misses)
system.cpu1.dcache.StoreCondReq_miss_rate::.cpu1.data     0.000220                       # miss rate for StoreCondReq accesses
system.cpu1.dcache.StoreCondReq_miss_rate::total     0.000220                       # miss rate for StoreCondReq accesses
system.cpu1.dcache.StoreCondReq_avg_miss_latency::.cpu1.data         8568                       # average StoreCondReq miss latency
system.cpu1.dcache.StoreCondReq_avg_miss_latency::total         8568                       # average StoreCondReq miss latency
system.cpu1.dcache.StoreCondReq_mshr_misses::.cpu1.data            2                       # number of StoreCondReq MSHR misses
system.cpu1.dcache.StoreCondReq_mshr_misses::total            2                       # number of StoreCondReq MSHR misses
system.cpu1.dcache.StoreCondReq_mshr_miss_latency::.cpu1.data        15708                       # number of StoreCondReq MSHR miss cycles
system.cpu1.dcache.StoreCondReq_mshr_miss_latency::total        15708                       # number of StoreCondReq MSHR miss cycles
system.cpu1.dcache.StoreCondReq_mshr_miss_rate::.cpu1.data     0.000220                       # mshr miss rate for StoreCondReq accesses
system.cpu1.dcache.StoreCondReq_mshr_miss_rate::total     0.000220                       # mshr miss rate for StoreCondReq accesses
system.cpu1.dcache.StoreCondReq_avg_mshr_miss_latency::.cpu1.data         7854                       # average StoreCondReq mshr miss latency
system.cpu1.dcache.StoreCondReq_avg_mshr_miss_latency::total         7854                       # average StoreCondReq mshr miss latency
system.cpu1.dcache.CleanSharedReq_miss_latency::.cpu1.data      2886702                       # number of CleanSharedReq miss cycles
system.cpu1.dcache.CleanSharedReq_miss_latency::total      2886702                       # number of CleanSharedReq miss cycles
system.cpu1.dcache.CleanSharedReq_avg_miss_latency::.cpu1.data          inf                       # average CleanSharedReq miss latency
system.cpu1.dcache.CleanSharedReq_avg_miss_latency::total          inf                       # average CleanSharedReq miss latency
system.cpu1.dcache.CleanSharedReq_mshr_misses::.cpu1.data          704                       # number of CleanSharedReq MSHR misses
system.cpu1.dcache.CleanSharedReq_mshr_misses::total          704                       # number of CleanSharedReq MSHR misses
system.cpu1.dcache.CleanSharedReq_mshr_miss_latency::.cpu1.data      1939908                       # number of CleanSharedReq MSHR miss cycles
system.cpu1.dcache.CleanSharedReq_mshr_miss_latency::total      1939908                       # number of CleanSharedReq MSHR miss cycles
system.cpu1.dcache.CleanSharedReq_mshr_miss_rate::.cpu1.data          inf                       # mshr miss rate for CleanSharedReq accesses
system.cpu1.dcache.CleanSharedReq_mshr_miss_rate::total          inf                       # mshr miss rate for CleanSharedReq accesses
system.cpu1.dcache.CleanSharedReq_avg_mshr_miss_latency::.cpu1.data  2755.551136                       # average CleanSharedReq mshr miss latency
system.cpu1.dcache.CleanSharedReq_avg_mshr_miss_latency::total  2755.551136                       # average CleanSharedReq mshr miss latency
system.cpu1.dcache.prefetcher.pwrStateResidencyTicks::UNDEFINED 47145184350351152                       # Cumulative time (in ticks) in various power states
system.cpu1.dcache.tags.pwrStateResidencyTicks::UNDEFINED 47145184350351152                       # Cumulative time (in ticks) in various power states
system.cpu1.dcache.tags.tagsinuse          246.666900                       # Cycle average of tags in use
system.cpu1.dcache.tags.total_refs             402055                       # Total number of references to valid blocks.
system.cpu1.dcache.tags.sampled_refs            16192                       # Sample count of references to valid blocks.
system.cpu1.dcache.tags.avg_refs            24.830472                       # Average number of references to valid blocks.
system.cpu1.dcache.tags.warmup_cycle                0                       # Cycle when the warmup percentage was hit.
system.cpu1.dcache.tags.occ_blocks::.cpu1.data   237.264819                       # Average occupied blocks per requestor
system.cpu1.dcache.tags.occ_blocks::.cpu1.dcache.prefetcher     9.402081                       # Average occupied blocks per requestor
system.cpu1.dcache.tags.occ_percent::.cpu1.data     0.926816                       # Average percentage of cache occupancy
system.cpu1.dcache.tags.occ_percent::.cpu1.dcache.prefetcher     0.036727                       # Average percentage of cache occupancy
system.cpu1.dcache.tags.occ_percent::total     0.963543                       # Average percentage of cache occupancy
system.cpu1.dcache.tags.occ_task_id_blocks::1022           45                       # Occupied blocks per task id
system.cpu1.dcache.tags.occ_task_id_blocks::1024          211                       # Occupied blocks per task id
system.cpu1.dcache.tags.age_task_id_blocks_1022::1           45                       # Occupied blocks per task id
system.cpu1.dcache.tags.age_task_id_blocks_1024::0           37                       # Occupied blocks per task id
system.cpu1.dcache.tags.age_task_id_blocks_1024::1          156                       # Occupied blocks per task id
system.cpu1.dcache.tags.age_task_id_blocks_1024::2           18                       # Occupied blocks per task id
system.cpu1.dcache.tags.occ_task_id_percent::1022     0.175781                       # Percentage of cache occupancy per task id
system.cpu1.dcache.tags.occ_task_id_percent::1024     0.824219                       # Percentage of cache occupancy per task id
system.cpu1.dcache.tags.tag_accesses           792598                       # Number of tag accesses
system.cpu1.dcache.tags.data_accesses          792598                       # Number of data accesses
system.cpu1.itb.walker.pwrStateResidencyTicks::UNDEFINED 47145184350351152                       # Cumulative time (in ticks) in various power states
system.cpu1.itb.stage2_mmu.stage2_tlb.walker.pwrStateResidencyTicks::UNDEFINED 47145184350351152                       # Cumulative time (in ticks) in various power states
system.cpu_clk_domain.clock                       714                       # Clock period in ticks
system.pci_ide.pwrStateResidencyTicks::UNDEFINED 47145184350351152                       # Cumulative time (in ticks) in various power states

---------- End Simulation Statistics   ----------
