
---------- Begin Simulation Statistics ----------
final_tick                               47144725103527504                       # Number of ticks from beginning of simulation (restored from checkpoints and never reset)
host_inst_rate                                 464856                       # Simulator instruction rate (inst/s)
host_mem_usage                                6328620                       # Number of bytes of host memory used
host_op_rate                                   570154                       # Simulator op (including micro ops) rate (op/s)
host_seconds                                    91.20                       # Real time elapsed on the host
host_tick_rate                              421720524                       # Simulator tick rate (ticks/s)
sim_freq                                 1000000000000                       # Frequency of simulated ticks
sim_insts                                    42394791                       # Number of instructions simulated
sim_ops                                      51997976                       # Number of ops (including micro ops) simulated
sim_seconds                                  0.038461                       # Number of seconds simulated
sim_ticks                                 38460842000                       # Number of ticks simulated
system.cpu0.branchPred.BTBCorrect                   0                       # Number of correct BTB predictions (this stat may not work properly.
system.cpu0.branchPred.BTBHitPct            17.547764                       # BTB Hit Percentage
system.cpu0.branchPred.BTBHits                  26020                       # Number of BTB hits
system.cpu0.branchPred.BTBLookups              148281                       # Number of BTB lookups
system.cpu0.branchPred.RASInCorrect              4804                       # Number of incorrect RAS predictions.
system.cpu0.branchPred.condIncorrect            29882                       # Number of conditional branches incorrect
system.cpu0.branchPred.condPredicted            86073                       # Number of conditional branches predicted
system.cpu0.branchPred.indirectHits              2493                       # Number of indirect target hits.
system.cpu0.branchPred.indirectLookups           3711                       # Number of indirect predictor lookups.
system.cpu0.branchPred.indirectMisses            1218                       # Number of indirect misses.
system.cpu0.branchPred.lookups                 206487                       # Number of BP lookups
system.cpu0.branchPred.usedRAS                  56197                       # Number of times the RAS was used to get a target.
system.cpu0.branchPredindirectMispredicted          161                       # Number of mispredicted indirect branches.
system.cpu0.committedInsts                     492890                       # Number of instructions committed
system.cpu0.committedOps                       654714                       # Number of ops (including micro ops) committed
system.cpu0.cpi                              2.374185                       # CPI: cycles per instruction
system.cpu0.dcache.prefetcher.num_hwpf_issued           21                       # number of hwpf issued
system.cpu0.dcache.prefetcher.pfBufferHit            0                       # number of redundant prefetches already in prefetch queue
system.cpu0.dcache.prefetcher.pfIdentified           21                       # number of prefetch candidates identified
system.cpu0.dcache.prefetcher.pfInCache             0                       # number of redundant prefetches already in cache/mshr dropped
system.cpu0.dcache.prefetcher.pfRemovedFull            0                       # number of prefetches dropped due to prefetch queue size
system.cpu0.dcache.prefetcher.pfSpanPage           31                       # number of prefetches that crossed the page
system.cpu0.discardedOps                        98913                       # Number of ops (including micro ops) which were discarded before commit
system.cpu0.dtb.accesses                       244831                       # DTB accesses
system.cpu0.dtb.align_faults                        0                       # Number of TLB faults due to alignment restrictions
system.cpu0.dtb.domain_faults                       0                       # Number of TLB faults due to domain restrictions
system.cpu0.dtb.flush_entries                       0                       # Number of entries that have been flushed from TLB
system.cpu0.dtb.flush_tlb                           0                       # Number of times complete TLB was flushed
system.cpu0.dtb.flush_tlb_asid                      0                       # Number of times TLB was flushed by ASID
system.cpu0.dtb.flush_tlb_mva                       0                       # Number of times TLB was flushed by MVA
system.cpu0.dtb.flush_tlb_mva_asid                  0                       # Number of times TLB was flushed by MVA & ASID
system.cpu0.dtb.hits                           243802                       # DTB hits
system.cpu0.dtb.inst_accesses                       0                       # ITB inst accesses
system.cpu0.dtb.inst_hits                           0                       # ITB inst hits
system.cpu0.dtb.inst_misses                         0                       # ITB inst misses
system.cpu0.dtb.misses                           1029                       # DTB misses
system.cpu0.dtb.perms_faults                        7                       # Number of TLB faults due to permissions restrictions
system.cpu0.dtb.prefetch_faults                     7                       # Number of TLB faults due to prefetch
system.cpu0.dtb.read_accesses                  130810                       # DTB read accesses
system.cpu0.dtb.read_hits                      130052                       # DTB read hits
system.cpu0.dtb.read_misses                       758                       # DTB read misses
system.cpu0.dtb.stage2_mmu.stage2_tlb.accesses            0                       # DTB accesses
system.cpu0.dtb.stage2_mmu.stage2_tlb.align_faults            0                       # Number of TLB faults due to alignment restrictions
system.cpu0.dtb.stage2_mmu.stage2_tlb.domain_faults            0                       # Number of TLB faults due to domain restrictions
system.cpu0.dtb.stage2_mmu.stage2_tlb.flush_entries            0                       # Number of entries that have been flushed from TLB
system.cpu0.dtb.stage2_mmu.stage2_tlb.flush_tlb            0                       # Number of times complete TLB was flushed
system.cpu0.dtb.stage2_mmu.stage2_tlb.flush_tlb_asid            0                       # Number of times TLB was flushed by ASID
system.cpu0.dtb.stage2_mmu.stage2_tlb.flush_tlb_mva            0                       # Number of times TLB was flushed by MVA
system.cpu0.dtb.stage2_mmu.stage2_tlb.flush_tlb_mva_asid            0                       # Number of times TLB was flushed by MVA & ASID
system.cpu0.dtb.stage2_mmu.stage2_tlb.hits            0                       # DTB hits
system.cpu0.dtb.stage2_mmu.stage2_tlb.inst_accesses            0                       # ITB inst accesses
system.cpu0.dtb.stage2_mmu.stage2_tlb.inst_hits            0                       # ITB inst hits
system.cpu0.dtb.stage2_mmu.stage2_tlb.inst_misses            0                       # ITB inst misses
system.cpu0.dtb.stage2_mmu.stage2_tlb.misses            0                       # DTB misses
system.cpu0.dtb.stage2_mmu.stage2_tlb.perms_faults            0                       # Number of TLB faults due to permissions restrictions
system.cpu0.dtb.stage2_mmu.stage2_tlb.prefetch_faults            0                       # Number of TLB faults due to prefetch
system.cpu0.dtb.stage2_mmu.stage2_tlb.read_accesses            0                       # DTB read accesses
system.cpu0.dtb.stage2_mmu.stage2_tlb.read_hits            0                       # DTB read hits
system.cpu0.dtb.stage2_mmu.stage2_tlb.read_misses            0                       # DTB read misses
system.cpu0.dtb.stage2_mmu.stage2_tlb.walker.walkRequestOrigin_Requested::Data            0                       # Table walker requests started/completed, data/inst
system.cpu0.dtb.stage2_mmu.stage2_tlb.walker.walkRequestOrigin_Requested::Inst            0                       # Table walker requests started/completed, data/inst
system.cpu0.dtb.stage2_mmu.stage2_tlb.walker.walkRequestOrigin_Requested::total            0                       # Table walker requests started/completed, data/inst
system.cpu0.dtb.stage2_mmu.stage2_tlb.walker.walkRequestOrigin_Completed::Data            0                       # Table walker requests started/completed, data/inst
system.cpu0.dtb.stage2_mmu.stage2_tlb.walker.walkRequestOrigin_Completed::Inst            0                       # Table walker requests started/completed, data/inst
system.cpu0.dtb.stage2_mmu.stage2_tlb.walker.walkRequestOrigin_Completed::total            0                       # Table walker requests started/completed, data/inst
system.cpu0.dtb.stage2_mmu.stage2_tlb.walker.walkRequestOrigin::total            0                       # Table walker requests started/completed, data/inst
system.cpu0.dtb.stage2_mmu.stage2_tlb.walker.walks            0                       # Table walker walks requested
system.cpu0.dtb.stage2_mmu.stage2_tlb.write_accesses            0                       # DTB write accesses
system.cpu0.dtb.stage2_mmu.stage2_tlb.write_hits            0                       # DTB write hits
system.cpu0.dtb.stage2_mmu.stage2_tlb.write_misses            0                       # DTB write misses
system.cpu0.dtb.walker.walkCompletionTime::samples            3                       # Table walker service (enqueue to completion) latency
system.cpu0.dtb.walker.walkCompletionTime::mean        17000                       # Table walker service (enqueue to completion) latency
system.cpu0.dtb.walker.walkCompletionTime::gmean 17000.000000                       # Table walker service (enqueue to completion) latency
system.cpu0.dtb.walker.walkCompletionTime::16384-18431            3    100.00%    100.00% # Table walker service (enqueue to completion) latency
system.cpu0.dtb.walker.walkCompletionTime::total            3                       # Table walker service (enqueue to completion) latency
system.cpu0.dtb.walker.walkPageSizes::4K            3    100.00%    100.00% # Table walker page sizes translated
system.cpu0.dtb.walker.walkPageSizes::total            3                       # Table walker page sizes translated
system.cpu0.dtb.walker.walkRequestOrigin_Requested::Data         1029                       # Table walker requests started/completed, data/inst
system.cpu0.dtb.walker.walkRequestOrigin_Requested::Inst            0                       # Table walker requests started/completed, data/inst
system.cpu0.dtb.walker.walkRequestOrigin_Requested::total         1029                       # Table walker requests started/completed, data/inst
system.cpu0.dtb.walker.walkRequestOrigin_Completed::Data            3                       # Table walker requests started/completed, data/inst
system.cpu0.dtb.walker.walkRequestOrigin_Completed::Inst            0                       # Table walker requests started/completed, data/inst
system.cpu0.dtb.walker.walkRequestOrigin_Completed::total            3                       # Table walker requests started/completed, data/inst
system.cpu0.dtb.walker.walkRequestOrigin::total         1032                       # Table walker requests started/completed, data/inst
system.cpu0.dtb.walker.walkWaitTime::samples         1029                       # Table walker wait (enqueue to first request) latency
system.cpu0.dtb.walker.walkWaitTime::0           1029    100.00%    100.00% # Table walker wait (enqueue to first request) latency
system.cpu0.dtb.walker.walkWaitTime::total         1029                       # Table walker wait (enqueue to first request) latency
system.cpu0.dtb.walker.walks                     1029                       # Table walker walks requested
system.cpu0.dtb.walker.walksLong                 1029                       # Table walker walks initiated with long descriptors
system.cpu0.dtb.walker.walksLongTerminationLevel::Level3            3                       # Level at which table walker walks with long descriptors terminate
system.cpu0.dtb.write_accesses                 114021                       # DTB write accesses
system.cpu0.dtb.write_hits                     113750                       # DTB write hits
system.cpu0.dtb.write_misses                      271                       # DTB write misses
system.cpu0.fetch2.amo_instructions                 0                       # Number of memory atomic instructions successfully decoded
system.cpu0.fetch2.fp_instructions                  0                       # Number of floating point instructions successfully decoded
system.cpu0.fetch2.int_instructions            538347                       # Number of integer instructions successfully decoded
system.cpu0.fetch2.load_instructions           137650                       # Number of memory load instructions successfully decoded
system.cpu0.fetch2.store_instructions           39551                       # Number of memory store instructions successfully decoded
system.cpu0.fetch2.vec_instructions                 0                       # Number of SIMD instructions successfully decoded
system.cpu0.idleCycles                         260017                       # Total number of cycles that the object has spent stopped
system.cpu0.ipc                              0.421197                       # IPC: instructions per cycle
system.cpu0.itb.accesses                       308487                       # DTB accesses
system.cpu0.itb.align_faults                        0                       # Number of TLB faults due to alignment restrictions
system.cpu0.itb.domain_faults                       0                       # Number of TLB faults due to domain restrictions
system.cpu0.itb.flush_entries                       0                       # Number of entries that have been flushed from TLB
system.cpu0.itb.flush_tlb                           0                       # Number of times complete TLB was flushed
system.cpu0.itb.flush_tlb_asid                      0                       # Number of times TLB was flushed by ASID
system.cpu0.itb.flush_tlb_mva                       0                       # Number of times TLB was flushed by MVA
system.cpu0.itb.flush_tlb_mva_asid                  0                       # Number of times TLB was flushed by MVA & ASID
system.cpu0.itb.hits                           308485                       # DTB hits
system.cpu0.itb.inst_accesses                  308487                       # ITB inst accesses
system.cpu0.itb.inst_hits                      308485                       # ITB inst hits
system.cpu0.itb.inst_misses                         2                       # ITB inst misses
system.cpu0.itb.misses                              2                       # DTB misses
system.cpu0.itb.perms_faults                        0                       # Number of TLB faults due to permissions restrictions
system.cpu0.itb.prefetch_faults                     0                       # Number of TLB faults due to prefetch
system.cpu0.itb.read_accesses                       0                       # DTB read accesses
system.cpu0.itb.read_hits                           0                       # DTB read hits
system.cpu0.itb.read_misses                         0                       # DTB read misses
system.cpu0.itb.stage2_mmu.stage2_tlb.accesses            0                       # DTB accesses
system.cpu0.itb.stage2_mmu.stage2_tlb.align_faults            0                       # Number of TLB faults due to alignment restrictions
system.cpu0.itb.stage2_mmu.stage2_tlb.domain_faults            0                       # Number of TLB faults due to domain restrictions
system.cpu0.itb.stage2_mmu.stage2_tlb.flush_entries            0                       # Number of entries that have been flushed from TLB
system.cpu0.itb.stage2_mmu.stage2_tlb.flush_tlb            0                       # Number of times complete TLB was flushed
system.cpu0.itb.stage2_mmu.stage2_tlb.flush_tlb_asid            0                       # Number of times TLB was flushed by ASID
system.cpu0.itb.stage2_mmu.stage2_tlb.flush_tlb_mva            0                       # Number of times TLB was flushed by MVA
system.cpu0.itb.stage2_mmu.stage2_tlb.flush_tlb_mva_asid            0                       # Number of times TLB was flushed by MVA & ASID
system.cpu0.itb.stage2_mmu.stage2_tlb.hits            0                       # DTB hits
system.cpu0.itb.stage2_mmu.stage2_tlb.inst_accesses            0                       # ITB inst accesses
system.cpu0.itb.stage2_mmu.stage2_tlb.inst_hits            0                       # ITB inst hits
system.cpu0.itb.stage2_mmu.stage2_tlb.inst_misses            0                       # ITB inst misses
system.cpu0.itb.stage2_mmu.stage2_tlb.misses            0                       # DTB misses
system.cpu0.itb.stage2_mmu.stage2_tlb.perms_faults            0                       # Number of TLB faults due to permissions restrictions
system.cpu0.itb.stage2_mmu.stage2_tlb.prefetch_faults            0                       # Number of TLB faults due to prefetch
system.cpu0.itb.stage2_mmu.stage2_tlb.read_accesses            0                       # DTB read accesses
system.cpu0.itb.stage2_mmu.stage2_tlb.read_hits            0                       # DTB read hits
system.cpu0.itb.stage2_mmu.stage2_tlb.read_misses            0                       # DTB read misses
system.cpu0.itb.stage2_mmu.stage2_tlb.walker.walkRequestOrigin_Requested::Data            0                       # Table walker requests started/completed, data/inst
system.cpu0.itb.stage2_mmu.stage2_tlb.walker.walkRequestOrigin_Requested::Inst            0                       # Table walker requests started/completed, data/inst
system.cpu0.itb.stage2_mmu.stage2_tlb.walker.walkRequestOrigin_Requested::total            0                       # Table walker requests started/completed, data/inst
system.cpu0.itb.stage2_mmu.stage2_tlb.walker.walkRequestOrigin_Completed::Data            0                       # Table walker requests started/completed, data/inst
system.cpu0.itb.stage2_mmu.stage2_tlb.walker.walkRequestOrigin_Completed::Inst            0                       # Table walker requests started/completed, data/inst
system.cpu0.itb.stage2_mmu.stage2_tlb.walker.walkRequestOrigin_Completed::total            0                       # Table walker requests started/completed, data/inst
system.cpu0.itb.stage2_mmu.stage2_tlb.walker.walkRequestOrigin::total            0                       # Table walker requests started/completed, data/inst
system.cpu0.itb.stage2_mmu.stage2_tlb.walker.walks            0                       # Table walker walks requested
system.cpu0.itb.stage2_mmu.stage2_tlb.write_accesses            0                       # DTB write accesses
system.cpu0.itb.stage2_mmu.stage2_tlb.write_hits            0                       # DTB write hits
system.cpu0.itb.stage2_mmu.stage2_tlb.write_misses            0                       # DTB write misses
system.cpu0.itb.walker.walkCompletionTime::samples            2                       # Table walker service (enqueue to completion) latency
system.cpu0.itb.walker.walkCompletionTime::mean        18000                       # Table walker service (enqueue to completion) latency
system.cpu0.itb.walker.walkCompletionTime::gmean 17972.200756                       # Table walker service (enqueue to completion) latency
system.cpu0.itb.walker.walkCompletionTime::stdev  1414.213562                       # Table walker service (enqueue to completion) latency
system.cpu0.itb.walker.walkCompletionTime::16384-18431            1     50.00%     50.00% # Table walker service (enqueue to completion) latency
system.cpu0.itb.walker.walkCompletionTime::18432-20479            1     50.00%    100.00% # Table walker service (enqueue to completion) latency
system.cpu0.itb.walker.walkCompletionTime::total            2                       # Table walker service (enqueue to completion) latency
system.cpu0.itb.walker.walkPageSizes::4K            2    100.00%    100.00% # Table walker page sizes translated
system.cpu0.itb.walker.walkPageSizes::total            2                       # Table walker page sizes translated
system.cpu0.itb.walker.walkRequestOrigin_Requested::Data            0                       # Table walker requests started/completed, data/inst
system.cpu0.itb.walker.walkRequestOrigin_Requested::Inst            2                       # Table walker requests started/completed, data/inst
system.cpu0.itb.walker.walkRequestOrigin_Requested::total            2                       # Table walker requests started/completed, data/inst
system.cpu0.itb.walker.walkRequestOrigin_Completed::Data            0                       # Table walker requests started/completed, data/inst
system.cpu0.itb.walker.walkRequestOrigin_Completed::Inst            2                       # Table walker requests started/completed, data/inst
system.cpu0.itb.walker.walkRequestOrigin_Completed::total            2                       # Table walker requests started/completed, data/inst
system.cpu0.itb.walker.walkRequestOrigin::total            4                       # Table walker requests started/completed, data/inst
system.cpu0.itb.walker.walkWaitTime::samples            2                       # Table walker wait (enqueue to first request) latency
system.cpu0.itb.walker.walkWaitTime::0              2    100.00%    100.00% # Table walker wait (enqueue to first request) latency
system.cpu0.itb.walker.walkWaitTime::total            2                       # Table walker wait (enqueue to first request) latency
system.cpu0.itb.walker.walks                        2                       # Table walker walks requested
system.cpu0.itb.walker.walksLong                    2                       # Table walker walks initiated with long descriptors
system.cpu0.itb.walker.walksLongTerminationLevel::Level3            2                       # Level at which table walker walks with long descriptors terminate
system.cpu0.itb.write_accesses                      0                       # DTB write accesses
system.cpu0.itb.write_hits                          0                       # DTB write hits
system.cpu0.itb.write_misses                        0                       # DTB write misses
system.cpu0.kern.inst.arm                           0                       # number of arm instructions executed
system.cpu0.kern.inst.quiesce                     109                       # number of quiesce instructions executed
system.cpu0.numCycles                         1170212                       # number of cpu cycles simulated
system.cpu0.numFetchSuspends                      109                       # Number of times Execute suspended instruction fetching
system.cpu0.numWorkItemsCompleted                   0                       # number of work items this cpu completed
system.cpu0.numWorkItemsStarted                     0                       # number of work items this cpu started
system.cpu0.op_class_0::No_OpClass                  0      0.00%      0.00% # Class of committed instruction
system.cpu0.op_class_0::IntAlu                 425526     64.99%     64.99% # Class of committed instruction
system.cpu0.op_class_0::IntMult                   405      0.06%     65.06% # Class of committed instruction
system.cpu0.op_class_0::IntDiv                     56      0.01%     65.06% # Class of committed instruction
system.cpu0.op_class_0::FloatAdd                    0      0.00%     65.06% # Class of committed instruction
system.cpu0.op_class_0::FloatCmp                    0      0.00%     65.06% # Class of committed instruction
system.cpu0.op_class_0::FloatCvt                    0      0.00%     65.06% # Class of committed instruction
system.cpu0.op_class_0::FloatMult                   0      0.00%     65.06% # Class of committed instruction
system.cpu0.op_class_0::FloatMultAcc                0      0.00%     65.06% # Class of committed instruction
system.cpu0.op_class_0::FloatDiv                    0      0.00%     65.06% # Class of committed instruction
system.cpu0.op_class_0::FloatMisc                   0      0.00%     65.06% # Class of committed instruction
system.cpu0.op_class_0::FloatSqrt                   0      0.00%     65.06% # Class of committed instruction
system.cpu0.op_class_0::SimdAdd                     0      0.00%     65.06% # Class of committed instruction
system.cpu0.op_class_0::SimdAddAcc                  0      0.00%     65.06% # Class of committed instruction
system.cpu0.op_class_0::SimdAlu                     0      0.00%     65.06% # Class of committed instruction
system.cpu0.op_class_0::SimdCmp                     0      0.00%     65.06% # Class of committed instruction
system.cpu0.op_class_0::SimdCvt                     0      0.00%     65.06% # Class of committed instruction
system.cpu0.op_class_0::SimdMisc                    0      0.00%     65.06% # Class of committed instruction
system.cpu0.op_class_0::SimdMult                    0      0.00%     65.06% # Class of committed instruction
system.cpu0.op_class_0::SimdMultAcc                 0      0.00%     65.06% # Class of committed instruction
system.cpu0.op_class_0::SimdShift                   0      0.00%     65.06% # Class of committed instruction
system.cpu0.op_class_0::SimdShiftAcc                0      0.00%     65.06% # Class of committed instruction
system.cpu0.op_class_0::SimdDiv                     0      0.00%     65.06% # Class of committed instruction
system.cpu0.op_class_0::SimdSqrt                    0      0.00%     65.06% # Class of committed instruction
system.cpu0.op_class_0::SimdFloatAdd                0      0.00%     65.06% # Class of committed instruction
system.cpu0.op_class_0::SimdFloatAlu                0      0.00%     65.06% # Class of committed instruction
system.cpu0.op_class_0::SimdFloatCmp                0      0.00%     65.06% # Class of committed instruction
system.cpu0.op_class_0::SimdFloatCvt                0      0.00%     65.06% # Class of committed instruction
system.cpu0.op_class_0::SimdFloatDiv                0      0.00%     65.06% # Class of committed instruction
system.cpu0.op_class_0::SimdFloatMisc               0      0.00%     65.06% # Class of committed instruction
system.cpu0.op_class_0::SimdFloatMult               0      0.00%     65.06% # Class of committed instruction
system.cpu0.op_class_0::SimdFloatMultAcc            0      0.00%     65.06% # Class of committed instruction
system.cpu0.op_class_0::SimdFloatSqrt               0      0.00%     65.06% # Class of committed instruction
system.cpu0.op_class_0::SimdReduceAdd               0      0.00%     65.06% # Class of committed instruction
system.cpu0.op_class_0::SimdReduceAlu               0      0.00%     65.06% # Class of committed instruction
system.cpu0.op_class_0::SimdReduceCmp               0      0.00%     65.06% # Class of committed instruction
system.cpu0.op_class_0::SimdFloatReduceAdd            0      0.00%     65.06% # Class of committed instruction
system.cpu0.op_class_0::SimdFloatReduceCmp            0      0.00%     65.06% # Class of committed instruction
system.cpu0.op_class_0::SimdAes                     0      0.00%     65.06% # Class of committed instruction
system.cpu0.op_class_0::SimdAesMix                  0      0.00%     65.06% # Class of committed instruction
system.cpu0.op_class_0::SimdSha1Hash                0      0.00%     65.06% # Class of committed instruction
system.cpu0.op_class_0::SimdSha1Hash2               0      0.00%     65.06% # Class of committed instruction
system.cpu0.op_class_0::SimdSha256Hash              0      0.00%     65.06% # Class of committed instruction
system.cpu0.op_class_0::SimdSha256Hash2             0      0.00%     65.06% # Class of committed instruction
system.cpu0.op_class_0::SimdShaSigma2               0      0.00%     65.06% # Class of committed instruction
system.cpu0.op_class_0::SimdShaSigma3               0      0.00%     65.06% # Class of committed instruction
system.cpu0.op_class_0::SimdPredAlu                 0      0.00%     65.06% # Class of committed instruction
system.cpu0.op_class_0::MemRead                116379     17.78%     82.84% # Class of committed instruction
system.cpu0.op_class_0::MemWrite               112348     17.16%    100.00% # Class of committed instruction
system.cpu0.op_class_0::FloatMemRead                0      0.00%    100.00% # Class of committed instruction
system.cpu0.op_class_0::FloatMemWrite               0      0.00%    100.00% # Class of committed instruction
system.cpu0.op_class_0::IprAccess                   0      0.00%    100.00% # Class of committed instruction
system.cpu0.op_class_0::InstPrefetch                0      0.00%    100.00% # Class of committed instruction
system.cpu0.op_class_0::total                  654714                       # Class of committed instruction
system.cpu0.quiesceCycles                    73342176                       # Total number of cycles that CPU has spent quiesced or waiting for an interrupt
system.cpu0.tickCycles                         910195                       # Number of cycles that the object actually ticked
system.cpu1.branchPred.BTBCorrect                   0                       # Number of correct BTB predictions (this stat may not work properly.
system.cpu1.branchPred.BTBHitPct            16.635834                       # BTB Hit Percentage
system.cpu1.branchPred.BTBHits                   8543                       # Number of BTB hits
system.cpu1.branchPred.BTBLookups               51353                       # Number of BTB lookups
system.cpu1.branchPred.RASInCorrect               982                       # Number of incorrect RAS predictions.
system.cpu1.branchPred.condIncorrect            10060                       # Number of conditional branches incorrect
system.cpu1.branchPred.condPredicted            32335                       # Number of conditional branches predicted
system.cpu1.branchPred.indirectHits               716                       # Number of indirect target hits.
system.cpu1.branchPred.indirectLookups           1107                       # Number of indirect predictor lookups.
system.cpu1.branchPred.indirectMisses             391                       # Number of indirect misses.
system.cpu1.branchPred.lookups                  67128                       # Number of BP lookups
system.cpu1.branchPred.usedRAS                  14393                       # Number of times the RAS was used to get a target.
system.cpu1.branchPredindirectMispredicted          140                       # Number of mispredicted indirect branches.
system.cpu1.committedInsts                     155145                       # Number of instructions committed
system.cpu1.committedOps                       197276                       # Number of ops (including micro ops) committed
system.cpu1.cpi                              1.835573                       # CPI: cycles per instruction
system.cpu1.dcache.prefetcher.num_hwpf_issued           10                       # number of hwpf issued
system.cpu1.dcache.prefetcher.pfBufferHit            0                       # number of redundant prefetches already in prefetch queue
system.cpu1.dcache.prefetcher.pfIdentified           10                       # number of prefetch candidates identified
system.cpu1.dcache.prefetcher.pfInCache             0                       # number of redundant prefetches already in cache/mshr dropped
system.cpu1.dcache.prefetcher.pfRemovedFull            0                       # number of prefetches dropped due to prefetch queue size
system.cpu1.dcache.prefetcher.pfSpanPage           10                       # number of prefetches that crossed the page
system.cpu1.discardedOps                        32088                       # Number of ops (including micro ops) which were discarded before commit
system.cpu1.dtb.accesses                        76044                       # DTB accesses
system.cpu1.dtb.align_faults                        0                       # Number of TLB faults due to alignment restrictions
system.cpu1.dtb.domain_faults                       0                       # Number of TLB faults due to domain restrictions
system.cpu1.dtb.flush_entries                       0                       # Number of entries that have been flushed from TLB
system.cpu1.dtb.flush_tlb                           0                       # Number of times complete TLB was flushed
system.cpu1.dtb.flush_tlb_asid                      0                       # Number of times TLB was flushed by ASID
system.cpu1.dtb.flush_tlb_mva                       0                       # Number of times TLB was flushed by MVA
system.cpu1.dtb.flush_tlb_mva_asid                  0                       # Number of times TLB was flushed by MVA & ASID
system.cpu1.dtb.hits                            75572                       # DTB hits
system.cpu1.dtb.inst_accesses                       0                       # ITB inst accesses
system.cpu1.dtb.inst_hits                           0                       # ITB inst hits
system.cpu1.dtb.inst_misses                         0                       # ITB inst misses
system.cpu1.dtb.misses                            472                       # DTB misses
system.cpu1.dtb.perms_faults                        9                       # Number of TLB faults due to permissions restrictions
system.cpu1.dtb.prefetch_faults                    12                       # Number of TLB faults due to prefetch
system.cpu1.dtb.read_accesses                   42443                       # DTB read accesses
system.cpu1.dtb.read_hits                       42040                       # DTB read hits
system.cpu1.dtb.read_misses                       403                       # DTB read misses
system.cpu1.dtb.stage2_mmu.stage2_tlb.accesses            0                       # DTB accesses
system.cpu1.dtb.stage2_mmu.stage2_tlb.align_faults            0                       # Number of TLB faults due to alignment restrictions
system.cpu1.dtb.stage2_mmu.stage2_tlb.domain_faults            0                       # Number of TLB faults due to domain restrictions
system.cpu1.dtb.stage2_mmu.stage2_tlb.flush_entries            0                       # Number of entries that have been flushed from TLB
system.cpu1.dtb.stage2_mmu.stage2_tlb.flush_tlb            0                       # Number of times complete TLB was flushed
system.cpu1.dtb.stage2_mmu.stage2_tlb.flush_tlb_asid            0                       # Number of times TLB was flushed by ASID
system.cpu1.dtb.stage2_mmu.stage2_tlb.flush_tlb_mva            0                       # Number of times TLB was flushed by MVA
system.cpu1.dtb.stage2_mmu.stage2_tlb.flush_tlb_mva_asid            0                       # Number of times TLB was flushed by MVA & ASID
system.cpu1.dtb.stage2_mmu.stage2_tlb.hits            0                       # DTB hits
system.cpu1.dtb.stage2_mmu.stage2_tlb.inst_accesses            0                       # ITB inst accesses
system.cpu1.dtb.stage2_mmu.stage2_tlb.inst_hits            0                       # ITB inst hits
system.cpu1.dtb.stage2_mmu.stage2_tlb.inst_misses            0                       # ITB inst misses
system.cpu1.dtb.stage2_mmu.stage2_tlb.misses            0                       # DTB misses
system.cpu1.dtb.stage2_mmu.stage2_tlb.perms_faults            0                       # Number of TLB faults due to permissions restrictions
system.cpu1.dtb.stage2_mmu.stage2_tlb.prefetch_faults            0                       # Number of TLB faults due to prefetch
system.cpu1.dtb.stage2_mmu.stage2_tlb.read_accesses            0                       # DTB read accesses
system.cpu1.dtb.stage2_mmu.stage2_tlb.read_hits            0                       # DTB read hits
system.cpu1.dtb.stage2_mmu.stage2_tlb.read_misses            0                       # DTB read misses
system.cpu1.dtb.stage2_mmu.stage2_tlb.walker.walkRequestOrigin_Requested::Data            0                       # Table walker requests started/completed, data/inst
system.cpu1.dtb.stage2_mmu.stage2_tlb.walker.walkRequestOrigin_Requested::Inst            0                       # Table walker requests started/completed, data/inst
system.cpu1.dtb.stage2_mmu.stage2_tlb.walker.walkRequestOrigin_Requested::total            0                       # Table walker requests started/completed, data/inst
system.cpu1.dtb.stage2_mmu.stage2_tlb.walker.walkRequestOrigin_Completed::Data            0                       # Table walker requests started/completed, data/inst
system.cpu1.dtb.stage2_mmu.stage2_tlb.walker.walkRequestOrigin_Completed::Inst            0                       # Table walker requests started/completed, data/inst
system.cpu1.dtb.stage2_mmu.stage2_tlb.walker.walkRequestOrigin_Completed::total            0                       # Table walker requests started/completed, data/inst
system.cpu1.dtb.stage2_mmu.stage2_tlb.walker.walkRequestOrigin::total            0                       # Table walker requests started/completed, data/inst
system.cpu1.dtb.stage2_mmu.stage2_tlb.walker.walks            0                       # Table walker walks requested
system.cpu1.dtb.stage2_mmu.stage2_tlb.write_accesses            0                       # DTB write accesses
system.cpu1.dtb.stage2_mmu.stage2_tlb.write_hits            0                       # DTB write hits
system.cpu1.dtb.stage2_mmu.stage2_tlb.write_misses            0                       # DTB write misses
system.cpu1.dtb.walker.walkCompletionTime::samples            5                       # Table walker service (enqueue to completion) latency
system.cpu1.dtb.walker.walkCompletionTime::mean        18600                       # Table walker service (enqueue to completion) latency
system.cpu1.dtb.walker.walkCompletionTime::gmean 18582.008955                       # Table walker service (enqueue to completion) latency
system.cpu1.dtb.walker.walkCompletionTime::stdev   894.427191                       # Table walker service (enqueue to completion) latency
system.cpu1.dtb.walker.walkCompletionTime::16384-18431            1     20.00%     20.00% # Table walker service (enqueue to completion) latency
system.cpu1.dtb.walker.walkCompletionTime::18432-20479            4     80.00%    100.00% # Table walker service (enqueue to completion) latency
system.cpu1.dtb.walker.walkCompletionTime::total            5                       # Table walker service (enqueue to completion) latency
system.cpu1.dtb.walker.walkPageSizes::4K            5    100.00%    100.00% # Table walker page sizes translated
system.cpu1.dtb.walker.walkPageSizes::total            5                       # Table walker page sizes translated
system.cpu1.dtb.walker.walkRequestOrigin_Requested::Data          472                       # Table walker requests started/completed, data/inst
system.cpu1.dtb.walker.walkRequestOrigin_Requested::Inst            0                       # Table walker requests started/completed, data/inst
system.cpu1.dtb.walker.walkRequestOrigin_Requested::total          472                       # Table walker requests started/completed, data/inst
system.cpu1.dtb.walker.walkRequestOrigin_Completed::Data            5                       # Table walker requests started/completed, data/inst
system.cpu1.dtb.walker.walkRequestOrigin_Completed::Inst            0                       # Table walker requests started/completed, data/inst
system.cpu1.dtb.walker.walkRequestOrigin_Completed::total            5                       # Table walker requests started/completed, data/inst
system.cpu1.dtb.walker.walkRequestOrigin::total          477                       # Table walker requests started/completed, data/inst
system.cpu1.dtb.walker.walkWaitTime::samples          472                       # Table walker wait (enqueue to first request) latency
system.cpu1.dtb.walker.walkWaitTime::0            472    100.00%    100.00% # Table walker wait (enqueue to first request) latency
system.cpu1.dtb.walker.walkWaitTime::total          472                       # Table walker wait (enqueue to first request) latency
system.cpu1.dtb.walker.walks                      472                       # Table walker walks requested
system.cpu1.dtb.walker.walksLong                  472                       # Table walker walks initiated with long descriptors
system.cpu1.dtb.walker.walksLongTerminationLevel::Level3            5                       # Level at which table walker walks with long descriptors terminate
system.cpu1.dtb.write_accesses                  33601                       # DTB write accesses
system.cpu1.dtb.write_hits                      33532                       # DTB write hits
system.cpu1.dtb.write_misses                       69                       # DTB write misses
system.cpu1.fetch2.amo_instructions                 0                       # Number of memory atomic instructions successfully decoded
system.cpu1.fetch2.fp_instructions                  0                       # Number of floating point instructions successfully decoded
system.cpu1.fetch2.int_instructions            170909                       # Number of integer instructions successfully decoded
system.cpu1.fetch2.load_instructions            50460                       # Number of memory load instructions successfully decoded
system.cpu1.fetch2.store_instructions           16682                       # Number of memory store instructions successfully decoded
system.cpu1.fetch2.vec_instructions                 0                       # Number of SIMD instructions successfully decoded
system.cpu1.idleCycles                           5795                       # Total number of cycles that the object has spent stopped
system.cpu1.ipc                              0.544789                       # IPC: instructions per cycle
system.cpu1.itb.accesses                        92429                       # DTB accesses
system.cpu1.itb.align_faults                        0                       # Number of TLB faults due to alignment restrictions
system.cpu1.itb.domain_faults                       0                       # Number of TLB faults due to domain restrictions
system.cpu1.itb.flush_entries                       0                       # Number of entries that have been flushed from TLB
system.cpu1.itb.flush_tlb                           0                       # Number of times complete TLB was flushed
system.cpu1.itb.flush_tlb_asid                      0                       # Number of times TLB was flushed by ASID
system.cpu1.itb.flush_tlb_mva                       0                       # Number of times TLB was flushed by MVA
system.cpu1.itb.flush_tlb_mva_asid                  0                       # Number of times TLB was flushed by MVA & ASID
system.cpu1.itb.hits                            92423                       # DTB hits
system.cpu1.itb.inst_accesses                   92429                       # ITB inst accesses
system.cpu1.itb.inst_hits                       92423                       # ITB inst hits
system.cpu1.itb.inst_misses                         6                       # ITB inst misses
system.cpu1.itb.misses                              6                       # DTB misses
system.cpu1.itb.perms_faults                        0                       # Number of TLB faults due to permissions restrictions
system.cpu1.itb.prefetch_faults                     0                       # Number of TLB faults due to prefetch
system.cpu1.itb.read_accesses                       0                       # DTB read accesses
system.cpu1.itb.read_hits                           0                       # DTB read hits
system.cpu1.itb.read_misses                         0                       # DTB read misses
system.cpu1.itb.stage2_mmu.stage2_tlb.accesses            0                       # DTB accesses
system.cpu1.itb.stage2_mmu.stage2_tlb.align_faults            0                       # Number of TLB faults due to alignment restrictions
system.cpu1.itb.stage2_mmu.stage2_tlb.domain_faults            0                       # Number of TLB faults due to domain restrictions
system.cpu1.itb.stage2_mmu.stage2_tlb.flush_entries            0                       # Number of entries that have been flushed from TLB
system.cpu1.itb.stage2_mmu.stage2_tlb.flush_tlb            0                       # Number of times complete TLB was flushed
system.cpu1.itb.stage2_mmu.stage2_tlb.flush_tlb_asid            0                       # Number of times TLB was flushed by ASID
system.cpu1.itb.stage2_mmu.stage2_tlb.flush_tlb_mva            0                       # Number of times TLB was flushed by MVA
system.cpu1.itb.stage2_mmu.stage2_tlb.flush_tlb_mva_asid            0                       # Number of times TLB was flushed by MVA & ASID
system.cpu1.itb.stage2_mmu.stage2_tlb.hits            0                       # DTB hits
system.cpu1.itb.stage2_mmu.stage2_tlb.inst_accesses            0                       # ITB inst accesses
system.cpu1.itb.stage2_mmu.stage2_tlb.inst_hits            0                       # ITB inst hits
system.cpu1.itb.stage2_mmu.stage2_tlb.inst_misses            0                       # ITB inst misses
system.cpu1.itb.stage2_mmu.stage2_tlb.misses            0                       # DTB misses
system.cpu1.itb.stage2_mmu.stage2_tlb.perms_faults            0                       # Number of TLB faults due to permissions restrictions
system.cpu1.itb.stage2_mmu.stage2_tlb.prefetch_faults            0                       # Number of TLB faults due to prefetch
system.cpu1.itb.stage2_mmu.stage2_tlb.read_accesses            0                       # DTB read accesses
system.cpu1.itb.stage2_mmu.stage2_tlb.read_hits            0                       # DTB read hits
system.cpu1.itb.stage2_mmu.stage2_tlb.read_misses            0                       # DTB read misses
system.cpu1.itb.stage2_mmu.stage2_tlb.walker.walkRequestOrigin_Requested::Data            0                       # Table walker requests started/completed, data/inst
system.cpu1.itb.stage2_mmu.stage2_tlb.walker.walkRequestOrigin_Requested::Inst            0                       # Table walker requests started/completed, data/inst
system.cpu1.itb.stage2_mmu.stage2_tlb.walker.walkRequestOrigin_Requested::total            0                       # Table walker requests started/completed, data/inst
system.cpu1.itb.stage2_mmu.stage2_tlb.walker.walkRequestOrigin_Completed::Data            0                       # Table walker requests started/completed, data/inst
system.cpu1.itb.stage2_mmu.stage2_tlb.walker.walkRequestOrigin_Completed::Inst            0                       # Table walker requests started/completed, data/inst
system.cpu1.itb.stage2_mmu.stage2_tlb.walker.walkRequestOrigin_Completed::total            0                       # Table walker requests started/completed, data/inst
system.cpu1.itb.stage2_mmu.stage2_tlb.walker.walkRequestOrigin::total            0                       # Table walker requests started/completed, data/inst
system.cpu1.itb.stage2_mmu.stage2_tlb.walker.walks            0                       # Table walker walks requested
system.cpu1.itb.stage2_mmu.stage2_tlb.write_accesses            0                       # DTB write accesses
system.cpu1.itb.stage2_mmu.stage2_tlb.write_hits            0                       # DTB write hits
system.cpu1.itb.stage2_mmu.stage2_tlb.write_misses            0                       # DTB write misses
system.cpu1.itb.walker.walkCompletionTime::samples            6                       # Table walker service (enqueue to completion) latency
system.cpu1.itb.walker.walkCompletionTime::mean 12916.666667                       # Table walker service (enqueue to completion) latency
system.cpu1.itb.walker.walkCompletionTime::gmean 11718.085224                       # Table walker service (enqueue to completion) latency
system.cpu1.itb.walker.walkCompletionTime::stdev  5978.433463                       # Table walker service (enqueue to completion) latency
system.cpu1.itb.walker.walkCompletionTime::6144-8191            3     50.00%     50.00% # Table walker service (enqueue to completion) latency
system.cpu1.itb.walker.walkCompletionTime::16384-18431            1     16.67%     66.67% # Table walker service (enqueue to completion) latency
system.cpu1.itb.walker.walkCompletionTime::18432-20479            2     33.33%    100.00% # Table walker service (enqueue to completion) latency
system.cpu1.itb.walker.walkCompletionTime::total            6                       # Table walker service (enqueue to completion) latency
system.cpu1.itb.walker.walkPageSizes::4K            6    100.00%    100.00% # Table walker page sizes translated
system.cpu1.itb.walker.walkPageSizes::total            6                       # Table walker page sizes translated
system.cpu1.itb.walker.walkRequestOrigin_Requested::Data            0                       # Table walker requests started/completed, data/inst
system.cpu1.itb.walker.walkRequestOrigin_Requested::Inst            6                       # Table walker requests started/completed, data/inst
system.cpu1.itb.walker.walkRequestOrigin_Requested::total            6                       # Table walker requests started/completed, data/inst
system.cpu1.itb.walker.walkRequestOrigin_Completed::Data            0                       # Table walker requests started/completed, data/inst
system.cpu1.itb.walker.walkRequestOrigin_Completed::Inst            6                       # Table walker requests started/completed, data/inst
system.cpu1.itb.walker.walkRequestOrigin_Completed::total            6                       # Table walker requests started/completed, data/inst
system.cpu1.itb.walker.walkRequestOrigin::total           12                       # Table walker requests started/completed, data/inst
system.cpu1.itb.walker.walkWaitTime::samples            6                       # Table walker wait (enqueue to first request) latency
system.cpu1.itb.walker.walkWaitTime::0              6    100.00%    100.00% # Table walker wait (enqueue to first request) latency
system.cpu1.itb.walker.walkWaitTime::total            6                       # Table walker wait (enqueue to first request) latency
system.cpu1.itb.walker.walks                        6                       # Table walker walks requested
system.cpu1.itb.walker.walksLong                    6                       # Table walker walks initiated with long descriptors
system.cpu1.itb.walker.walksLongTerminationLevel::Level3            6                       # Level at which table walker walks with long descriptors terminate
system.cpu1.itb.write_accesses                      0                       # DTB write accesses
system.cpu1.itb.write_hits                          0                       # DTB write hits
system.cpu1.itb.write_misses                        0                       # DTB write misses
system.cpu1.kern.inst.arm                           0                       # number of arm instructions executed
system.cpu1.kern.inst.quiesce                      16                       # number of quiesce instructions executed
system.cpu1.numCycles                          284780                       # number of cpu cycles simulated
system.cpu1.numFetchSuspends                       16                       # Number of times Execute suspended instruction fetching
system.cpu1.numWorkItemsCompleted                   0                       # number of work items this cpu completed
system.cpu1.numWorkItemsStarted                     0                       # number of work items this cpu started
system.cpu1.op_class_0::No_OpClass                  0      0.00%      0.00% # Class of committed instruction
system.cpu1.op_class_0::IntAlu                 127465     64.61%     64.61% # Class of committed instruction
system.cpu1.op_class_0::IntMult                   409      0.21%     64.82% # Class of committed instruction
system.cpu1.op_class_0::IntDiv                    138      0.07%     64.89% # Class of committed instruction
system.cpu1.op_class_0::FloatAdd                    0      0.00%     64.89% # Class of committed instruction
system.cpu1.op_class_0::FloatCmp                    0      0.00%     64.89% # Class of committed instruction
system.cpu1.op_class_0::FloatCvt                    0      0.00%     64.89% # Class of committed instruction
system.cpu1.op_class_0::FloatMult                   0      0.00%     64.89% # Class of committed instruction
system.cpu1.op_class_0::FloatMultAcc                0      0.00%     64.89% # Class of committed instruction
system.cpu1.op_class_0::FloatDiv                    0      0.00%     64.89% # Class of committed instruction
system.cpu1.op_class_0::FloatMisc                   0      0.00%     64.89% # Class of committed instruction
system.cpu1.op_class_0::FloatSqrt                   0      0.00%     64.89% # Class of committed instruction
system.cpu1.op_class_0::SimdAdd                     0      0.00%     64.89% # Class of committed instruction
system.cpu1.op_class_0::SimdAddAcc                  0      0.00%     64.89% # Class of committed instruction
system.cpu1.op_class_0::SimdAlu                     0      0.00%     64.89% # Class of committed instruction
system.cpu1.op_class_0::SimdCmp                     0      0.00%     64.89% # Class of committed instruction
system.cpu1.op_class_0::SimdCvt                     0      0.00%     64.89% # Class of committed instruction
system.cpu1.op_class_0::SimdMisc                    0      0.00%     64.89% # Class of committed instruction
system.cpu1.op_class_0::SimdMult                    0      0.00%     64.89% # Class of committed instruction
system.cpu1.op_class_0::SimdMultAcc                 0      0.00%     64.89% # Class of committed instruction
system.cpu1.op_class_0::SimdShift                   0      0.00%     64.89% # Class of committed instruction
system.cpu1.op_class_0::SimdShiftAcc                0      0.00%     64.89% # Class of committed instruction
system.cpu1.op_class_0::SimdDiv                     0      0.00%     64.89% # Class of committed instruction
system.cpu1.op_class_0::SimdSqrt                    0      0.00%     64.89% # Class of committed instruction
system.cpu1.op_class_0::SimdFloatAdd                0      0.00%     64.89% # Class of committed instruction
system.cpu1.op_class_0::SimdFloatAlu                0      0.00%     64.89% # Class of committed instruction
system.cpu1.op_class_0::SimdFloatCmp                0      0.00%     64.89% # Class of committed instruction
system.cpu1.op_class_0::SimdFloatCvt                0      0.00%     64.89% # Class of committed instruction
system.cpu1.op_class_0::SimdFloatDiv                0      0.00%     64.89% # Class of committed instruction
system.cpu1.op_class_0::SimdFloatMisc               0      0.00%     64.89% # Class of committed instruction
system.cpu1.op_class_0::SimdFloatMult               0      0.00%     64.89% # Class of committed instruction
system.cpu1.op_class_0::SimdFloatMultAcc            0      0.00%     64.89% # Class of committed instruction
system.cpu1.op_class_0::SimdFloatSqrt               0      0.00%     64.89% # Class of committed instruction
system.cpu1.op_class_0::SimdReduceAdd               0      0.00%     64.89% # Class of committed instruction
system.cpu1.op_class_0::SimdReduceAlu               0      0.00%     64.89% # Class of committed instruction
system.cpu1.op_class_0::SimdReduceCmp               0      0.00%     64.89% # Class of committed instruction
system.cpu1.op_class_0::SimdFloatReduceAdd            0      0.00%     64.89% # Class of committed instruction
system.cpu1.op_class_0::SimdFloatReduceCmp            0      0.00%     64.89% # Class of committed instruction
system.cpu1.op_class_0::SimdAes                     0      0.00%     64.89% # Class of committed instruction
system.cpu1.op_class_0::SimdAesMix                  0      0.00%     64.89% # Class of committed instruction
system.cpu1.op_class_0::SimdSha1Hash                0      0.00%     64.89% # Class of committed instruction
system.cpu1.op_class_0::SimdSha1Hash2               0      0.00%     64.89% # Class of committed instruction
system.cpu1.op_class_0::SimdSha256Hash              0      0.00%     64.89% # Class of committed instruction
system.cpu1.op_class_0::SimdSha256Hash2             0      0.00%     64.89% # Class of committed instruction
system.cpu1.op_class_0::SimdShaSigma2               0      0.00%     64.89% # Class of committed instruction
system.cpu1.op_class_0::SimdShaSigma3               0      0.00%     64.89% # Class of committed instruction
system.cpu1.op_class_0::SimdPredAlu                 0      0.00%     64.89% # Class of committed instruction
system.cpu1.op_class_0::MemRead                 36283     18.39%     83.28% # Class of committed instruction
system.cpu1.op_class_0::MemWrite                32981     16.72%    100.00% # Class of committed instruction
system.cpu1.op_class_0::FloatMemRead                0      0.00%    100.00% # Class of committed instruction
system.cpu1.op_class_0::FloatMemWrite               0      0.00%    100.00% # Class of committed instruction
system.cpu1.op_class_0::IprAccess                   0      0.00%    100.00% # Class of committed instruction
system.cpu1.op_class_0::InstPrefetch                0      0.00%    100.00% # Class of committed instruction
system.cpu1.op_class_0::total                  197276                       # Class of committed instruction
system.cpu1.quiesceCycles                    79085598                       # Total number of cycles that CPU has spent quiesced or waiting for an interrupt
system.cpu1.tickCycles                         278985                       # Number of cycles that the object actually ticked
system.cpu2.branchPred.BTBCorrect                   0                       # Number of correct BTB predictions (this stat may not work properly.
system.cpu2.branchPred.BTBHitPct            28.145531                       # BTB Hit Percentage
system.cpu2.branchPred.BTBHits                1979422                       # Number of BTB hits
system.cpu2.branchPred.BTBLookups             7032811                       # Number of BTB lookups
system.cpu2.branchPred.RASInCorrect             49762                       # Number of incorrect RAS predictions.
system.cpu2.branchPred.condIncorrect          1067568                       # Number of conditional branches incorrect
system.cpu2.branchPred.condPredicted          5089132                       # Number of conditional branches predicted
system.cpu2.branchPred.indirectHits             29406                       # Number of indirect target hits.
system.cpu2.branchPred.indirectLookups          41261                       # Number of indirect predictor lookups.
system.cpu2.branchPred.indirectMisses           11855                       # Number of indirect misses.
system.cpu2.branchPred.lookups                8696174                       # Number of BP lookups
system.cpu2.branchPred.usedRAS                1415025                       # Number of times the RAS was used to get a target.
system.cpu2.branchPredindirectMispredicted         2234                       # Number of mispredicted indirect branches.
system.cpu2.committedInsts                   24646194                       # Number of instructions committed
system.cpu2.committedOps                     30486039                       # Number of ops (including micro ops) committed
system.cpu2.cpi                              3.117787                       # CPI: cycles per instruction
system.cpu2.dcache.prefetcher.num_hwpf_issued          489                       # number of hwpf issued
system.cpu2.dcache.prefetcher.pfBufferHit          564                       # number of redundant prefetches already in prefetch queue
system.cpu2.dcache.prefetcher.pfIdentified         1749                       # number of prefetch candidates identified
system.cpu2.dcache.prefetcher.pfInCache             0                       # number of redundant prefetches already in cache/mshr dropped
system.cpu2.dcache.prefetcher.pfRemovedFull          108                       # number of prefetches dropped due to prefetch queue size
system.cpu2.dcache.prefetcher.pfSpanPage           91                       # number of prefetches that crossed the page
system.cpu2.discardedOps                      6249952                       # Number of ops (including micro ops) which were discarded before commit
system.cpu2.dtb.accesses                      8064714                       # DTB accesses
system.cpu2.dtb.align_faults                        1                       # Number of TLB faults due to alignment restrictions
system.cpu2.dtb.domain_faults                       0                       # Number of TLB faults due to domain restrictions
system.cpu2.dtb.flush_entries                       0                       # Number of entries that have been flushed from TLB
system.cpu2.dtb.flush_tlb                           0                       # Number of times complete TLB was flushed
system.cpu2.dtb.flush_tlb_asid                      0                       # Number of times TLB was flushed by ASID
system.cpu2.dtb.flush_tlb_mva                       0                       # Number of times TLB was flushed by MVA
system.cpu2.dtb.flush_tlb_mva_asid                  0                       # Number of times TLB was flushed by MVA & ASID
system.cpu2.dtb.hits                          8049439                       # DTB hits
system.cpu2.dtb.inst_accesses                       0                       # ITB inst accesses
system.cpu2.dtb.inst_hits                           0                       # ITB inst hits
system.cpu2.dtb.inst_misses                         0                       # ITB inst misses
system.cpu2.dtb.misses                          15275                       # DTB misses
system.cpu2.dtb.perms_faults                      193                       # Number of TLB faults due to permissions restrictions
system.cpu2.dtb.prefetch_faults                   104                       # Number of TLB faults due to prefetch
system.cpu2.dtb.read_accesses                 4187909                       # DTB read accesses
system.cpu2.dtb.read_hits                     4174300                       # DTB read hits
system.cpu2.dtb.read_misses                     13609                       # DTB read misses
system.cpu2.dtb.stage2_mmu.stage2_tlb.accesses            0                       # DTB accesses
system.cpu2.dtb.stage2_mmu.stage2_tlb.align_faults            0                       # Number of TLB faults due to alignment restrictions
system.cpu2.dtb.stage2_mmu.stage2_tlb.domain_faults            0                       # Number of TLB faults due to domain restrictions
system.cpu2.dtb.stage2_mmu.stage2_tlb.flush_entries            0                       # Number of entries that have been flushed from TLB
system.cpu2.dtb.stage2_mmu.stage2_tlb.flush_tlb            0                       # Number of times complete TLB was flushed
system.cpu2.dtb.stage2_mmu.stage2_tlb.flush_tlb_asid            0                       # Number of times TLB was flushed by ASID
system.cpu2.dtb.stage2_mmu.stage2_tlb.flush_tlb_mva            0                       # Number of times TLB was flushed by MVA
system.cpu2.dtb.stage2_mmu.stage2_tlb.flush_tlb_mva_asid            0                       # Number of times TLB was flushed by MVA & ASID
system.cpu2.dtb.stage2_mmu.stage2_tlb.hits            0                       # DTB hits
system.cpu2.dtb.stage2_mmu.stage2_tlb.inst_accesses            0                       # ITB inst accesses
system.cpu2.dtb.stage2_mmu.stage2_tlb.inst_hits            0                       # ITB inst hits
system.cpu2.dtb.stage2_mmu.stage2_tlb.inst_misses            0                       # ITB inst misses
system.cpu2.dtb.stage2_mmu.stage2_tlb.misses            0                       # DTB misses
system.cpu2.dtb.stage2_mmu.stage2_tlb.perms_faults            0                       # Number of TLB faults due to permissions restrictions
system.cpu2.dtb.stage2_mmu.stage2_tlb.prefetch_faults            0                       # Number of TLB faults due to prefetch
system.cpu2.dtb.stage2_mmu.stage2_tlb.read_accesses            0                       # DTB read accesses
system.cpu2.dtb.stage2_mmu.stage2_tlb.read_hits            0                       # DTB read hits
system.cpu2.dtb.stage2_mmu.stage2_tlb.read_misses            0                       # DTB read misses
system.cpu2.dtb.stage2_mmu.stage2_tlb.walker.walkRequestOrigin_Requested::Data            0                       # Table walker requests started/completed, data/inst
system.cpu2.dtb.stage2_mmu.stage2_tlb.walker.walkRequestOrigin_Requested::Inst            0                       # Table walker requests started/completed, data/inst
system.cpu2.dtb.stage2_mmu.stage2_tlb.walker.walkRequestOrigin_Requested::total            0                       # Table walker requests started/completed, data/inst
system.cpu2.dtb.stage2_mmu.stage2_tlb.walker.walkRequestOrigin_Completed::Data            0                       # Table walker requests started/completed, data/inst
system.cpu2.dtb.stage2_mmu.stage2_tlb.walker.walkRequestOrigin_Completed::Inst            0                       # Table walker requests started/completed, data/inst
system.cpu2.dtb.stage2_mmu.stage2_tlb.walker.walkRequestOrigin_Completed::total            0                       # Table walker requests started/completed, data/inst
system.cpu2.dtb.stage2_mmu.stage2_tlb.walker.walkRequestOrigin::total            0                       # Table walker requests started/completed, data/inst
system.cpu2.dtb.stage2_mmu.stage2_tlb.walker.walks            0                       # Table walker walks requested
system.cpu2.dtb.stage2_mmu.stage2_tlb.write_accesses            0                       # DTB write accesses
system.cpu2.dtb.stage2_mmu.stage2_tlb.write_hits            0                       # DTB write hits
system.cpu2.dtb.stage2_mmu.stage2_tlb.write_misses            0                       # DTB write misses
system.cpu2.dtb.walker.walkCompletionTime::samples          962                       # Table walker service (enqueue to completion) latency
system.cpu2.dtb.walker.walkCompletionTime::mean  9694.386694                       # Table walker service (enqueue to completion) latency
system.cpu2.dtb.walker.walkCompletionTime::gmean  9192.880488                       # Table walker service (enqueue to completion) latency
system.cpu2.dtb.walker.walkCompletionTime::stdev  5206.270702                       # Table walker service (enqueue to completion) latency
system.cpu2.dtb.walker.walkCompletionTime::0-8191          520     54.05%     54.05% # Table walker service (enqueue to completion) latency
system.cpu2.dtb.walker.walkCompletionTime::8192-16383          409     42.52%     96.57% # Table walker service (enqueue to completion) latency
system.cpu2.dtb.walker.walkCompletionTime::16384-24575           25      2.60%     99.17% # Table walker service (enqueue to completion) latency
system.cpu2.dtb.walker.walkCompletionTime::24576-32767            1      0.10%     99.27% # Table walker service (enqueue to completion) latency
system.cpu2.dtb.walker.walkCompletionTime::32768-40959            3      0.31%     99.58% # Table walker service (enqueue to completion) latency
system.cpu2.dtb.walker.walkCompletionTime::40960-49151            2      0.21%     99.79% # Table walker service (enqueue to completion) latency
system.cpu2.dtb.walker.walkCompletionTime::81920-90111            1      0.10%     99.90% # Table walker service (enqueue to completion) latency
system.cpu2.dtb.walker.walkCompletionTime::98304-106495            1      0.10%    100.00% # Table walker service (enqueue to completion) latency
system.cpu2.dtb.walker.walkCompletionTime::total          962                       # Table walker service (enqueue to completion) latency
system.cpu2.dtb.walker.walkPageSizes::4K          949     98.65%     98.65% # Table walker page sizes translated
system.cpu2.dtb.walker.walkPageSizes::2M           13      1.35%    100.00% # Table walker page sizes translated
system.cpu2.dtb.walker.walkPageSizes::total          962                       # Table walker page sizes translated
system.cpu2.dtb.walker.walkRequestOrigin_Requested::Data        15275                       # Table walker requests started/completed, data/inst
system.cpu2.dtb.walker.walkRequestOrigin_Requested::Inst            0                       # Table walker requests started/completed, data/inst
system.cpu2.dtb.walker.walkRequestOrigin_Requested::total        15275                       # Table walker requests started/completed, data/inst
system.cpu2.dtb.walker.walkRequestOrigin_Completed::Data          962                       # Table walker requests started/completed, data/inst
system.cpu2.dtb.walker.walkRequestOrigin_Completed::Inst            0                       # Table walker requests started/completed, data/inst
system.cpu2.dtb.walker.walkRequestOrigin_Completed::total          962                       # Table walker requests started/completed, data/inst
system.cpu2.dtb.walker.walkRequestOrigin::total        16237                       # Table walker requests started/completed, data/inst
system.cpu2.dtb.walker.walkWaitTime::samples        15275                       # Table walker wait (enqueue to first request) latency
system.cpu2.dtb.walker.walkWaitTime::0          15275    100.00%    100.00% # Table walker wait (enqueue to first request) latency
system.cpu2.dtb.walker.walkWaitTime::total        15275                       # Table walker wait (enqueue to first request) latency
system.cpu2.dtb.walker.walks                    15275                       # Table walker walks requested
system.cpu2.dtb.walker.walksLong                15275                       # Table walker walks initiated with long descriptors
system.cpu2.dtb.walker.walksLongTerminationLevel::Level2           13                       # Level at which table walker walks with long descriptors terminate
system.cpu2.dtb.walker.walksLongTerminationLevel::Level3          949                       # Level at which table walker walks with long descriptors terminate
system.cpu2.dtb.write_accesses                3876805                       # DTB write accesses
system.cpu2.dtb.write_hits                    3875139                       # DTB write hits
system.cpu2.dtb.write_misses                     1666                       # DTB write misses
system.cpu2.fetch2.amo_instructions                 0                       # Number of memory atomic instructions successfully decoded
system.cpu2.fetch2.fp_instructions                  0                       # Number of floating point instructions successfully decoded
system.cpu2.fetch2.int_instructions          38494211                       # Number of integer instructions successfully decoded
system.cpu2.fetch2.load_instructions          3011161                       # Number of memory load instructions successfully decoded
system.cpu2.fetch2.store_instructions         1214239                       # Number of memory store instructions successfully decoded
system.cpu2.fetch2.vec_instructions                 0                       # Number of SIMD instructions successfully decoded
system.cpu2.idleCycles                       32324076                       # Total number of cycles that the object has spent stopped
system.cpu2.ipc                              0.320740                       # IPC: instructions per cycle
system.cpu2.itb.accesses                     14038158                       # DTB accesses
system.cpu2.itb.align_faults                        0                       # Number of TLB faults due to alignment restrictions
system.cpu2.itb.domain_faults                       0                       # Number of TLB faults due to domain restrictions
system.cpu2.itb.flush_entries                       0                       # Number of entries that have been flushed from TLB
system.cpu2.itb.flush_tlb                           0                       # Number of times complete TLB was flushed
system.cpu2.itb.flush_tlb_asid                      0                       # Number of times TLB was flushed by ASID
system.cpu2.itb.flush_tlb_mva                       0                       # Number of times TLB was flushed by MVA
system.cpu2.itb.flush_tlb_mva_asid                  0                       # Number of times TLB was flushed by MVA & ASID
system.cpu2.itb.hits                         14033085                       # DTB hits
system.cpu2.itb.inst_accesses                14038158                       # ITB inst accesses
system.cpu2.itb.inst_hits                    14033085                       # ITB inst hits
system.cpu2.itb.inst_misses                      5073                       # ITB inst misses
system.cpu2.itb.misses                           5073                       # DTB misses
system.cpu2.itb.perms_faults                      513                       # Number of TLB faults due to permissions restrictions
system.cpu2.itb.prefetch_faults                     0                       # Number of TLB faults due to prefetch
system.cpu2.itb.read_accesses                       0                       # DTB read accesses
system.cpu2.itb.read_hits                           0                       # DTB read hits
system.cpu2.itb.read_misses                         0                       # DTB read misses
system.cpu2.itb.stage2_mmu.stage2_tlb.accesses            0                       # DTB accesses
system.cpu2.itb.stage2_mmu.stage2_tlb.align_faults            0                       # Number of TLB faults due to alignment restrictions
system.cpu2.itb.stage2_mmu.stage2_tlb.domain_faults            0                       # Number of TLB faults due to domain restrictions
system.cpu2.itb.stage2_mmu.stage2_tlb.flush_entries            0                       # Number of entries that have been flushed from TLB
system.cpu2.itb.stage2_mmu.stage2_tlb.flush_tlb            0                       # Number of times complete TLB was flushed
system.cpu2.itb.stage2_mmu.stage2_tlb.flush_tlb_asid            0                       # Number of times TLB was flushed by ASID
system.cpu2.itb.stage2_mmu.stage2_tlb.flush_tlb_mva            0                       # Number of times TLB was flushed by MVA
system.cpu2.itb.stage2_mmu.stage2_tlb.flush_tlb_mva_asid            0                       # Number of times TLB was flushed by MVA & ASID
system.cpu2.itb.stage2_mmu.stage2_tlb.hits            0                       # DTB hits
system.cpu2.itb.stage2_mmu.stage2_tlb.inst_accesses            0                       # ITB inst accesses
system.cpu2.itb.stage2_mmu.stage2_tlb.inst_hits            0                       # ITB inst hits
system.cpu2.itb.stage2_mmu.stage2_tlb.inst_misses            0                       # ITB inst misses
system.cpu2.itb.stage2_mmu.stage2_tlb.misses            0                       # DTB misses
system.cpu2.itb.stage2_mmu.stage2_tlb.perms_faults            0                       # Number of TLB faults due to permissions restrictions
system.cpu2.itb.stage2_mmu.stage2_tlb.prefetch_faults            0                       # Number of TLB faults due to prefetch
system.cpu2.itb.stage2_mmu.stage2_tlb.read_accesses            0                       # DTB read accesses
system.cpu2.itb.stage2_mmu.stage2_tlb.read_hits            0                       # DTB read hits
system.cpu2.itb.stage2_mmu.stage2_tlb.read_misses            0                       # DTB read misses
system.cpu2.itb.stage2_mmu.stage2_tlb.walker.walkRequestOrigin_Requested::Data            0                       # Table walker requests started/completed, data/inst
system.cpu2.itb.stage2_mmu.stage2_tlb.walker.walkRequestOrigin_Requested::Inst            0                       # Table walker requests started/completed, data/inst
system.cpu2.itb.stage2_mmu.stage2_tlb.walker.walkRequestOrigin_Requested::total            0                       # Table walker requests started/completed, data/inst
system.cpu2.itb.stage2_mmu.stage2_tlb.walker.walkRequestOrigin_Completed::Data            0                       # Table walker requests started/completed, data/inst
system.cpu2.itb.stage2_mmu.stage2_tlb.walker.walkRequestOrigin_Completed::Inst            0                       # Table walker requests started/completed, data/inst
system.cpu2.itb.stage2_mmu.stage2_tlb.walker.walkRequestOrigin_Completed::total            0                       # Table walker requests started/completed, data/inst
system.cpu2.itb.stage2_mmu.stage2_tlb.walker.walkRequestOrigin::total            0                       # Table walker requests started/completed, data/inst
system.cpu2.itb.stage2_mmu.stage2_tlb.walker.walks            0                       # Table walker walks requested
system.cpu2.itb.stage2_mmu.stage2_tlb.write_accesses            0                       # DTB write accesses
system.cpu2.itb.stage2_mmu.stage2_tlb.write_hits            0                       # DTB write hits
system.cpu2.itb.stage2_mmu.stage2_tlb.write_misses            0                       # DTB write misses
system.cpu2.itb.walker.walkCompletionTime::samples         3239                       # Table walker service (enqueue to completion) latency
system.cpu2.itb.walker.walkCompletionTime::mean  8541.062056                       # Table walker service (enqueue to completion) latency
system.cpu2.itb.walker.walkCompletionTime::gmean  8253.952861                       # Table walker service (enqueue to completion) latency
system.cpu2.itb.walker.walkCompletionTime::stdev  3069.105188                       # Table walker service (enqueue to completion) latency
system.cpu2.itb.walker.walkCompletionTime::4096-8191         2625     81.04%     81.04% # Table walker service (enqueue to completion) latency
system.cpu2.itb.walker.walkCompletionTime::8192-12287          486     15.00%     96.05% # Table walker service (enqueue to completion) latency
system.cpu2.itb.walker.walkCompletionTime::12288-16383            5      0.15%     96.20% # Table walker service (enqueue to completion) latency
system.cpu2.itb.walker.walkCompletionTime::16384-20479          111      3.43%     99.63% # Table walker service (enqueue to completion) latency
system.cpu2.itb.walker.walkCompletionTime::40960-45055           12      0.37%    100.00% # Table walker service (enqueue to completion) latency
system.cpu2.itb.walker.walkCompletionTime::total         3239                       # Table walker service (enqueue to completion) latency
system.cpu2.itb.walker.walkPageSizes::4K         3239    100.00%    100.00% # Table walker page sizes translated
system.cpu2.itb.walker.walkPageSizes::total         3239                       # Table walker page sizes translated
system.cpu2.itb.walker.walkRequestOrigin_Requested::Data            0                       # Table walker requests started/completed, data/inst
system.cpu2.itb.walker.walkRequestOrigin_Requested::Inst         5073                       # Table walker requests started/completed, data/inst
system.cpu2.itb.walker.walkRequestOrigin_Requested::total         5073                       # Table walker requests started/completed, data/inst
system.cpu2.itb.walker.walkRequestOrigin_Completed::Data            0                       # Table walker requests started/completed, data/inst
[...]
system.mem_ctrls.peakBW                       4266.00                       # Theoretical peak bandwidth in MiByte/s
system.mem_ctrls.busUtil                         0.09                       # Data bus utilization in percentage
system.mem_ctrls.busUtilRead                     0.09                       # Data bus utilization in percentage for reads
system.mem_ctrls.busUtilWrite                    0.00                       # Data bus utilization in percentage for writes
system.mem_ctrls.totGap                   12871458000                       # Total gap between requests
system.mem_ctrls.avgGap                  162929848.10                       # Average gap between requests
system.mem_ctrls.masterReadBytes::.cpu0.inst         1664                       # Per-master bytes read from memory
system.mem_ctrls.masterReadBytes::.cpu0.data          576                       # Per-master bytes read from memory
system.mem_ctrls.masterReadBytes::.cpu0.dtb.walker          192                       # Per-master bytes read from memory
system.mem_ctrls.masterReadBytes::.cpu3.data         2496                       # Per-master bytes read from memory
system.mem_ctrls.masterReadBytes::.cpu3.dtb.walker          128                       # Per-master bytes read from memory
system.mem_ctrls.masterReadRate::.cpu0.inst 1292569.743614441482                       # Per-master bytes read from memory rate (Bytes/sec)
system.mem_ctrls.masterReadRate::.cpu0.data 447427.988174229744                       # Per-master bytes read from memory rate (Bytes/sec)
system.mem_ctrls.masterReadRate::.cpu0.dtb.walker 149142.662724743248                       # Per-master bytes read from memory rate (Bytes/sec)
system.mem_ctrls.masterReadRate::.cpu3.data 1938854.615421662107                       # Per-master bytes read from memory rate (Bytes/sec)
system.mem_ctrls.masterReadRate::.cpu3.dtb.walker 99428.441816495499                       # Per-master bytes read from memory rate (Bytes/sec)
system.mem_ctrls.masterReadAccesses::.cpu0.inst           52                       # Per-master read serviced memory accesses
system.mem_ctrls.masterReadAccesses::.cpu0.data           18                       # Per-master read serviced memory accesses
system.mem_ctrls.masterReadAccesses::.cpu0.dtb.walker            6                       # Per-master read serviced memory accesses
system.mem_ctrls.masterReadAccesses::.cpu3.data           78                       # Per-master read serviced memory accesses
system.mem_ctrls.masterReadAccesses::.cpu3.dtb.walker            4                       # Per-master read serviced memory accesses
system.mem_ctrls.masterReadTotalLat::.cpu0.inst      1860000                       # Per-master read total memory access latency
system.mem_ctrls.masterReadTotalLat::.cpu0.data       682500                       # Per-master read total memory access latency
system.mem_ctrls.masterReadTotalLat::.cpu0.dtb.walker       277500                       # Per-master read total memory access latency
system.mem_ctrls.masterReadTotalLat::.cpu3.data      2735500                       # Per-master read total memory access latency
system.mem_ctrls.masterReadTotalLat::.cpu3.dtb.walker       165000                       # Per-master read total memory access latency
system.mem_ctrls.masterReadAvgLat::.cpu0.inst     35769.23                       # Per-master read average memory access latency
system.mem_ctrls.masterReadAvgLat::.cpu0.data     37916.67                       # Per-master read average memory access latency
system.mem_ctrls.masterReadAvgLat::.cpu0.dtb.walker     46250.00                       # Per-master read average memory access latency
system.mem_ctrls.masterReadAvgLat::.cpu3.data     35070.51                       # Per-master read average memory access latency
system.mem_ctrls.masterReadAvgLat::.cpu3.dtb.walker     41250.00                       # Per-master read average memory access latency
system.mem_ctrls.pageHitRate                    77.22                       # Row buffer hit rate, read and write combined
system.mem_ctrls.rank0.actEnergy         109509.624000                       # Energy for activate commands per rank (pJ)
system.mem_ctrls.rank0.preEnergy         38576.563200                       # Energy for precharge commands per rank (pJ)
system.mem_ctrls.rank0.readEnergy        271391.164800                       # Energy for read commands per rank (pJ)
system.mem_ctrls.rank0.writeEnergy                  0                       # Energy for write commands per rank (pJ)
system.mem_ctrls.rank0.refreshEnergy     9193253.580000                       # Energy for refresh commands per rank (pJ)
system.mem_ctrls.rank0.actBackEnergy     2451354.192000                       # Energy for active background per rank (pJ)
system.mem_ctrls.rank0.preBackEnergy     48582501.105600                       # Energy for precharge background per rank (pJ)
system.mem_ctrls.rank0.actPowerDownEnergy            0                       # Energy for active power-down per rank (pJ)
system.mem_ctrls.rank0.prePowerDownEnergy            0                       # Energy for precharge power-down per rank (pJ)
system.mem_ctrls.rank0.selfRefreshEnergy            0                       # Energy for self refresh per rank (pJ)
system.mem_ctrls.rank0.totalEnergy       60646586.229600                       # Total energy per rank (pJ)
system.mem_ctrls.rank0.averagePower         47.109340                       # Core power per rank (mW)
system.mem_ctrls.rank0.totalIdleTime                0                       # Total Idle time Per DRAM Rank
system.mem_ctrls.rank0.memoryStateTime::IDLE   1222163124                       # Time in different power states
system.mem_ctrls.rank0.memoryStateTime::REF     43030000                       # Time in different power states
system.mem_ctrls.rank0.memoryStateTime::SREF            0                       # Time in different power states
system.mem_ctrls.rank0.memoryStateTime::PRE_PDN            0                       # Time in different power states
system.mem_ctrls.rank0.memoryStateTime::ACT     22178376                       # Time in different power states
system.mem_ctrls.rank0.memoryStateTime::ACT_PDN            0                       # Time in different power states
system.cpu1.pwrStateClkGateDist::samples            1                       # Distribution of time spent in the clock gated state
system.cpu1.pwrStateClkGateDist::mean      1287371500                       # Distribution of time spent in the clock gated state
system.cpu1.pwrStateClkGateDist::1000-5e+10            1    100.00%    100.00% # Distribution of time spent in the clock gated state
system.cpu1.pwrStateClkGateDist::min_value   1287371500                       # Distribution of time spent in the clock gated state
system.cpu1.pwrStateClkGateDist::max_value   1287371500                       # Distribution of time spent in the clock gated state
system.cpu1.pwrStateClkGateDist::total              1                       # Distribution of time spent in the clock gated state
system.cpu1.pwrStateResidencyTicks::CLK_GATED   1287371500                       # Cumulative time (in ticks) in various power states
system.cpu1.icache.pwrStateResidencyTicks::UNDEFINED   1287371500                       # Cumulative time (in ticks) in various power states
system.cpu1.icache.blocked_cycles::no_mshrs            0                       # number of cycles access was blocked
system.cpu1.icache.blocked_cycles::no_targets            0                       # number of cycles access was blocked
system.cpu1.icache.blocked::no_mshrs                0                       # number of cycles access was blocked
system.cpu1.icache.blocked::no_targets              0                       # number of cycles access was blocked
system.cpu1.icache.avg_blocked_cycles::no_mshrs          nan                       # average number of cycles each access was blocked
system.cpu1.icache.avg_blocked_cycles::no_targets          nan                       # average number of cycles each access was blocked
system.cpu1.icache.replacements                     0                       # number of replacements
system.cpu1.icache.tags.pwrStateResidencyTicks::UNDEFINED   1287371500                       # Cumulative time (in ticks) in various power states
system.cpu1.icache.tags.tagsinuse               13703                       # Cycle average of tags in use
system.cpu1.icache.tags.total_refs            4040147                       # Total number of references to valid blocks.
system.cpu1.icache.tags.sampled_refs            13703                       # Sample count of references to valid blocks.
system.cpu1.icache.tags.avg_refs           294.836678                       # Average number of references to valid blocks.
system.cpu1.icache.tags.warmup_cycle                0                       # Cycle when the warmup percentage was hit.
system.cpu1.icache.tags.occ_blocks::.cpu1.inst        13703                       # Average occupied blocks per requestor
system.cpu1.icache.tags.occ_percent::.cpu1.inst     0.006534                       # Average percentage of cache occupancy
system.cpu1.icache.tags.occ_percent::total     0.006534                       # Average percentage of cache occupancy
system.cpu1.icache.tags.occ_task_id_blocks::1024        13703                       # Occupied blocks per task id
system.cpu1.icache.tags.age_task_id_blocks_1024::4        13703                       # Occupied blocks per task id
system.cpu1.icache.tags.occ_task_id_percent::1024     0.006534                       # Percentage of cache occupancy per task id
system.cpu1.icache.tags.tag_accesses                0                       # Number of tag accesses
system.cpu1.icache.tags.data_accesses               0                       # Number of data accesses
system.cpu1.dtb.walker.pwrStateResidencyTicks::UNDEFINED   1287371500                       # Cumulative time (in ticks) in various power states
system.cpu1.dtb.stage2_mmu.stage2_tlb.walker.pwrStateResidencyTicks::UNDEFINED   1287371500                       # Cumulative time (in ticks) in various power states
system.cpu1.itb_walker_cache.pwrStateResidencyTicks::UNDEFINED   1287371500                       # Cumulative time (in ticks) in various power states
system.cpu1.itb_walker_cache.blocked_cycles::no_mshrs            0                       # number of cycles access was blocked
system.cpu1.itb_walker_cache.blocked_cycles::no_targets            0                       # number of cycles access was blocked
system.cpu1.itb_walker_cache.blocked::no_mshrs            0                       # number of cycles access was blocked
system.cpu1.itb_walker_cache.blocked::no_targets            0                       # number of cycles access was blocked
system.cpu1.itb_walker_cache.avg_blocked_cycles::no_mshrs          nan                       # average number of cycles each access was blocked
system.cpu1.itb_walker_cache.avg_blocked_cycles::no_targets          nan                       # average number of cycles each access was blocked
system.cpu1.itb_walker_cache.replacements            0                       # number of replacements
system.cpu1.itb_walker_cache.tags.pwrStateResidencyTicks::UNDEFINED   1287371500                       # Cumulative time (in ticks) in various power states
system.cpu1.itb_walker_cache.tags.tagsinuse           16                       # Cycle average of tags in use
system.cpu1.itb_walker_cache.tags.total_refs           85                       # Total number of references to valid blocks.
system.cpu1.itb_walker_cache.tags.sampled_refs           16                       # Sample count of references to valid blocks.
system.cpu1.itb_walker_cache.tags.avg_refs     5.312500                       # Average number of references to valid blocks.
system.cpu1.itb_walker_cache.tags.warmup_cycle            0                       # Cycle when the warmup percentage was hit.
system.cpu1.itb_walker_cache.tags.occ_blocks::.cpu1.itb.walker           16                       # Average occupied blocks per requestor
system.cpu1.itb_walker_cache.tags.occ_percent::.cpu1.itb.walker            1                       # Average percentage of cache occupancy
system.cpu1.itb_walker_cache.tags.occ_percent::total            1                       # Average percentage of cache occupancy
system.cpu1.itb_walker_cache.tags.occ_task_id_blocks::1023           16                       # Occupied blocks per task id
system.cpu1.itb_walker_cache.tags.age_task_id_blocks_1023::4           16                       # Occupied blocks per task id
system.cpu1.itb_walker_cache.tags.occ_task_id_percent::1023            1                       # Percentage of cache occupancy per task id
system.cpu1.itb_walker_cache.tags.tag_accesses            0                       # Number of tag accesses
system.cpu1.itb_walker_cache.tags.data_accesses            0                       # Number of data accesses
system.cpu1.dtb_walker_cache.pwrStateResidencyTicks::UNDEFINED   1287371500                       # Cumulative time (in ticks) in various power states
system.cpu1.dtb_walker_cache.blocked_cycles::no_mshrs            0                       # number of cycles access was blocked
system.cpu1.dtb_walker_cache.blocked_cycles::no_targets            0                       # number of cycles access was blocked
system.cpu1.dtb_walker_cache.blocked::no_mshrs            0                       # number of cycles access was blocked
system.cpu1.dtb_walker_cache.blocked::no_targets            0                       # number of cycles access was blocked
system.cpu1.dtb_walker_cache.avg_blocked_cycles::no_mshrs          nan                       # average number of cycles each access was blocked
system.cpu1.dtb_walker_cache.avg_blocked_cycles::no_targets          nan                       # average number of cycles each access was blocked
system.cpu1.dtb_walker_cache.replacements            0                       # number of replacements
system.cpu1.dtb_walker_cache.tags.pwrStateResidencyTicks::UNDEFINED   1287371500                       # Cumulative time (in ticks) in various power states
system.cpu1.dtb_walker_cache.tags.tagsinuse           16                       # Cycle average of tags in use
system.cpu1.dtb_walker_cache.tags.total_refs          814                       # Total number of references to valid blocks.
system.cpu1.dtb_walker_cache.tags.sampled_refs           16                       # Sample count of references to valid blocks.
system.cpu1.dtb_walker_cache.tags.avg_refs    50.875000                       # Average number of references to valid blocks.
system.cpu1.dtb_walker_cache.tags.warmup_cycle            0                       # Cycle when the warmup percentage was hit.
system.cpu1.dtb_walker_cache.tags.occ_blocks::.cpu1.dtb.walker           16                       # Average occupied blocks per requestor
system.cpu1.dtb_walker_cache.tags.occ_percent::.cpu1.dtb.walker            1                       # Average percentage of cache occupancy
system.cpu1.dtb_walker_cache.tags.occ_percent::total            1                       # Average percentage of cache occupancy
system.cpu1.dtb_walker_cache.tags.occ_task_id_blocks::1023           16                       # Occupied blocks per task id
system.cpu1.dtb_walker_cache.tags.age_task_id_blocks_1023::4           16                       # Occupied blocks per task id
system.cpu1.dtb_walker_cache.tags.occ_task_id_percent::1023            1                       # Percentage of cache occupancy per task id
system.cpu1.dtb_walker_cache.tags.tag_accesses            0                       # Number of tag accesses
system.cpu1.dtb_walker_cache.tags.data_accesses            0                       # Number of data accesses
system.cpu1.dcache.pwrStateResidencyTicks::UNDEFINED   1287371500                       # Cumulative time (in ticks) in various power states
system.cpu1.dcache.blocked_cycles::no_mshrs            0                       # number of cycles access was blocked
system.cpu1.dcache.blocked_cycles::no_targets            0                       # number of cycles access was blocked
system.cpu1.dcache.blocked::no_mshrs                0                       # number of cycles access was blocked
system.cpu1.dcache.blocked::no_targets              0                       # number of cycles access was blocked
system.cpu1.dcache.avg_blocked_cycles::no_mshrs          nan                       # average number of cycles each access was blocked
system.cpu1.dcache.avg_blocked_cycles::no_targets          nan                       # average number of cycles each access was blocked
system.cpu1.dcache.unused_prefetches                1                       # number of HardPF blocks evicted w/o reference
system.cpu1.dcache.replacements                     0                       # number of replacements
system.cpu1.dcache.prefetcher.pwrStateResidencyTicks::UNDEFINED   1287371500                       # Cumulative time (in ticks) in various power states
system.cpu1.dcache.tags.pwrStateResidencyTicks::UNDEFINED   1287371500                       # Cumulative time (in ticks) in various power states
system.cpu1.dcache.tags.tagsinuse        16987.042687                       # Cycle average of tags in use
system.cpu1.dcache.tags.total_refs            2764087                       # Total number of references to valid blocks.
system.cpu1.dcache.tags.sampled_refs            17003                       # Sample count of references to valid blocks.
system.cpu1.dcache.tags.avg_refs           162.564665                       # Average number of references to valid blocks.
system.cpu1.dcache.tags.warmup_cycle                0                       # Cycle when the warmup percentage was hit.
system.cpu1.dcache.tags.occ_blocks::.cpu1.data 13133.672278                       # Average occupied blocks per requestor
system.cpu1.dcache.tags.occ_blocks::.cpu1.dcache.prefetcher  3853.370409                       # Average occupied blocks per requestor
system.cpu1.dcache.tags.occ_percent::.cpu1.data     0.006263                       # Average percentage of cache occupancy
system.cpu1.dcache.tags.occ_percent::.cpu1.dcache.prefetcher     0.001837                       # Average percentage of cache occupancy
system.cpu1.dcache.tags.occ_percent::total     0.008100                       # Average percentage of cache occupancy
system.cpu1.dcache.tags.occ_task_id_blocks::1022         3853                       # Occupied blocks per task id
system.cpu1.dcache.tags.occ_task_id_blocks::1024        13125                       # Occupied blocks per task id
system.cpu1.dcache.tags.age_task_id_blocks_1022::4         3853                       # Occupied blocks per task id
system.cpu1.dcache.tags.age_task_id_blocks_1024::4        13125                       # Occupied blocks per task id
system.cpu1.dcache.tags.occ_task_id_percent::1022     0.001837                       # Percentage of cache occupancy per task id
system.cpu1.dcache.tags.occ_task_id_percent::1024     0.006258                       # Percentage of cache occupancy per task id
system.cpu1.dcache.tags.tag_accesses                0                       # Number of tag accesses
system.cpu1.dcache.tags.data_accesses               0                       # Number of data accesses
system.cpu1.itb.walker.pwrStateResidencyTicks::UNDEFINED   1287371500                       # Cumulative time (in ticks) in various power states
system.cpu1.itb.stage2_mmu.stage2_tlb.walker.pwrStateResidencyTicks::UNDEFINED   1287371500                       # Cumulative time (in ticks) in various power states
system.cpu_clk_domain.clock                       500                       # Clock period in ticks
system.pci_ide.pwrStateResidencyTicks::UNDEFINED   1287371500                       # Cumulative time (in ticks) in various power states

---------- End Simulation Statistics   ----------
