
---------- Begin Simulation Statistics ----------
final_tick                               47149252676308144                       # Number of ticks from beginning of simulation (restored from checkpoints and never reset)
host_inst_rate                                 291892                       # Simulator instruction rate (inst/s)
host_mem_usage                                1940696                       # Number of bytes of host memory used
host_op_rate                                   370141                       # Simulator op (including micro ops) rate (op/s)
host_seconds                                   998.94                       # Real time elapsed on the host
host_tick_rate                              697846113                       # Simulator tick rate (ticks/s)
sim_freq                                 1000000000000                       # Frequency of simulated ticks
sim_insts                                   291583849                       # Number of instructions simulated
sim_ops                                     369749999                       # Number of ops (including micro ops) simulated
sim_seconds                                  0.697110                       # Number of seconds simulated
sim_ticks                                697109740236                       # Number of ticks simulated
system.cpu0.branchPred.BTBCorrect                   0                       # Number of correct BTB predictions (this stat may not work properly.
system.cpu0.branchPred.BTBHitPct            19.146601                       # BTB Hit Percentage
system.cpu0.branchPred.BTBHits                  33317                       # Number of BTB hits
system.cpu0.branchPred.BTBLookups              174010                       # Number of BTB lookups
system.cpu0.branchPred.RASInCorrect              5824                       # Number of incorrect RAS predictions.
system.cpu0.branchPred.condIncorrect            36655                       # Number of conditional branches incorrect
system.cpu0.branchPred.condPredicted           101449                       # Number of conditional branches predicted
system.cpu0.branchPred.indirectHits              2992                       # Number of indirect target hits.
system.cpu0.branchPred.indirectLookups           4405                       # Number of indirect predictor lookups.
system.cpu0.branchPred.indirectMisses            1413                       # Number of indirect misses.
system.cpu0.branchPred.lookups                 238412                       # Number of BP lookups
system.cpu0.branchPred.usedRAS                  61883                       # Number of times the RAS was used to get a target.
system.cpu0.branchPredindirectMispredicted          221                       # Number of mispredicted indirect branches.
system.cpu0.committedInsts                     623860                       # Number of instructions committed
system.cpu0.committedOps                       824627                       # Number of ops (including micro ops) committed
system.cpu0.cpi                              3.716052                       # CPI: cycles per instruction
system.cpu0.dcache.prefetcher.num_hwpf_issued          143                       # number of hwpf issued
system.cpu0.dcache.prefetcher.pfBufferHit            5                       # number of redundant prefetches already in prefetch queue
system.cpu0.dcache.prefetcher.pfIdentified          153                       # number of prefetch candidates identified
system.cpu0.dcache.prefetcher.pfInCache             0                       # number of redundant prefetches already in cache/mshr dropped
system.cpu0.dcache.prefetcher.pfRemovedFull            0                       # number of prefetches dropped due to prefetch queue size
system.cpu0.dcache.prefetcher.pfSpanPage           67                       # number of prefetches that crossed the page
system.cpu0.discardedOps                       118053                       # Number of ops (including micro ops) which were discarded before commit
system.cpu0.dtb.accesses                       306486                       # DTB accesses
system.cpu0.dtb.align_faults                        2                       # Number of TLB faults due to alignment restrictions
system.cpu0.dtb.domain_faults                       0                       # Number of TLB faults due to domain restrictions
system.cpu0.dtb.flush_entries                       0                       # Number of entries that have been flushed from TLB
system.cpu0.dtb.flush_tlb                           0                       # Number of times complete TLB was flushed
system.cpu0.dtb.flush_tlb_asid                      3                       # Number of times TLB was flushed by ASID
system.cpu0.dtb.flush_tlb_mva                       0                       # Number of times TLB was flushed by MVA
system.cpu0.dtb.flush_tlb_mva_asid                140                       # Number of times TLB was flushed by MVA & ASID
system.cpu0.dtb.hits                           305208                       # DTB hits
system.cpu0.dtb.inst_accesses                       0                       # ITB inst accesses
system.cpu0.dtb.inst_hits                           0                       # ITB inst hits
system.cpu0.dtb.inst_misses                         0                       # ITB inst misses
system.cpu0.dtb.misses                           1278                       # DTB misses
system.cpu0.dtb.perms_faults                        9                       # Number of TLB faults due to permissions restrictions
system.cpu0.dtb.prefetch_faults                    13                       # Number of TLB faults due to prefetch
system.cpu0.dtb.read_accesses                  164707                       # DTB read accesses
system.cpu0.dtb.read_hits                      163761                       # DTB read hits
system.cpu0.dtb.read_misses                       946                       # DTB read misses
system.cpu0.dtb.stage2_mmu.stage2_tlb.accesses            0                       # DTB accesses
system.cpu0.dtb.stage2_mmu.stage2_tlb.align_faults            0                       # Number of TLB faults due to alignment restrictions
system.cpu0.dtb.stage2_mmu.stage2_tlb.domain_faults            0                       # Number of TLB faults due to domain restrictions
system.cpu0.dtb.stage2_mmu.stage2_tlb.flush_entries            0                       # Number of entries that have been flushed from TLB
system.cpu0.dtb.stage2_mmu.stage2_tlb.flush_tlb            0                       # Number of times complete TLB was flushed
system.cpu0.dtb.stage2_mmu.stage2_tlb.flush_tlb_asid            0                       # Number of times TLB was flushed by ASID
system.cpu0.dtb.stage2_mmu.stage2_tlb.flush_tlb_mva            0                       # Number of times TLB was flushed by MVA
system.cpu0.dtb.stage2_mmu.stage2_tlb.flush_tlb_mva_asid            0                       # Number of times TLB was flushed by MVA & ASID
system.cpu0.dtb.stage2_mmu.stage2_tlb.hits            0                       # DTB hits
system.cpu0.dtb.stage2_mmu.stage2_tlb.inst_accesses            0                       # ITB inst accesses
system.cpu0.dtb.stage2_mmu.stage2_tlb.inst_hits            0                       # ITB inst hits
system.cpu0.dtb.stage2_mmu.stage2_tlb.inst_misses            0                       # ITB inst misses
system.cpu0.dtb.stage2_mmu.stage2_tlb.misses            0                       # DTB misses
system.cpu0.dtb.stage2_mmu.stage2_tlb.perms_faults            0                       # Number of TLB faults due to permissions restrictions
system.cpu0.dtb.stage2_mmu.stage2_tlb.prefetch_faults            0                       # Number of TLB faults due to prefetch
system.cpu0.dtb.stage2_mmu.stage2_tlb.read_accesses            0                       # DTB read accesses
system.cpu0.dtb.stage2_mmu.stage2_tlb.read_hits            0                       # DTB read hits
system.cpu0.dtb.stage2_mmu.stage2_tlb.read_misses            0                       # DTB read misses
system.cpu0.dtb.stage2_mmu.stage2_tlb.walker.walkRequestOrigin_Requested::Data            0                       # Table walker requests started/completed, data/inst
system.cpu0.dtb.stage2_mmu.stage2_tlb.walker.walkRequestOrigin_Requested::Inst            0                       # Table walker requests started/completed, data/inst
system.cpu0.dtb.stage2_mmu.stage2_tlb.walker.walkRequestOrigin_Requested::total            0                       # Table walker requests started/completed, data/inst
system.cpu0.dtb.stage2_mmu.stage2_tlb.walker.walkRequestOrigin_Completed::Data            0                       # Table walker requests started/completed, data/inst
system.cpu0.dtb.stage2_mmu.stage2_tlb.walker.walkRequestOrigin_Completed::Inst            0                       # Table walker requests started/completed, data/inst
system.cpu0.dtb.stage2_mmu.stage2_tlb.walker.walkRequestOrigin_Completed::total            0                       # Table walker requests started/completed, data/inst
system.cpu0.dtb.stage2_mmu.stage2_tlb.walker.walkRequestOrigin::total            0                       # Table walker requests started/completed, data/inst
system.cpu0.dtb.stage2_mmu.stage2_tlb.walker.walks            0                       # Table walker walks requested
system.cpu0.dtb.stage2_mmu.stage2_tlb.write_accesses            0                       # DTB write accesses
system.cpu0.dtb.stage2_mmu.stage2_tlb.write_hits            0                       # DTB write hits
system.cpu0.dtb.stage2_mmu.stage2_tlb.write_misses            0                       # DTB write misses
system.cpu0.dtb.walker.walkCompletionTime::samples            1                       # Table walker service (enqueue to completion) latency
system.cpu0.dtb.walker.walkCompletionTime::mean       142086                       # Table walker service (enqueue to completion) latency
system.cpu0.dtb.walker.walkCompletionTime::gmean 142086.000000                       # Table walker service (enqueue to completion) latency
system.cpu0.dtb.walker.walkCompletionTime::131072-147455            1    100.00%    100.00% # Table walker service (enqueue to completion) latency
system.cpu0.dtb.walker.walkCompletionTime::total            1                       # Table walker service (enqueue to completion) latency
system.cpu0.dtb.walker.walkPageSizes::4K            1    100.00%    100.00% # Table walker page sizes translated
system.cpu0.dtb.walker.walkPageSizes::total            1                       # Table walker page sizes translated
system.cpu0.dtb.walker.walkRequestOrigin_Requested::Data         1278                       # Table walker requests started/completed, data/inst
system.cpu0.dtb.walker.walkRequestOrigin_Requested::Inst            0                       # Table walker requests started/completed, data/inst
system.cpu0.dtb.walker.walkRequestOrigin_Requested::total         1278                       # Table walker requests started/completed, data/inst
system.cpu0.dtb.walker.walkRequestOrigin_Completed::Data            1                       # Table walker requests started/completed, data/inst
system.cpu0.dtb.walker.walkRequestOrigin_Completed::Inst            0                       # Table walker requests started/completed, data/inst
system.cpu0.dtb.walker.walkRequestOrigin_Completed::total            1                       # Table walker requests started/completed, data/inst
system.cpu0.dtb.walker.walkRequestOrigin::total         1279                       # Table walker requests started/completed, data/inst
system.cpu0.dtb.walker.walkWaitTime::samples         1278                       # Table walker wait (enqueue to first request) latency
system.cpu0.dtb.walker.walkWaitTime::0           1278    100.00%    100.00% # Table walker wait (enqueue to first request) latency
system.cpu0.dtb.walker.walkWaitTime::total         1278                       # Table walker wait (enqueue to first request) latency
system.cpu0.dtb.walker.walks                     1278                       # Table walker walks requested
system.cpu0.dtb.walker.walksLong                 1278                       # Table walker walks initiated with long descriptors
system.cpu0.dtb.walker.walksLongTerminationLevel::Level3            1                       # Level at which table walker walks with long descriptors terminate
system.cpu0.dtb.write_accesses                 141779                       # DTB write accesses
system.cpu0.dtb.write_hits                     141447                       # DTB write hits
system.cpu0.dtb.write_misses                      332                       # DTB write misses
system.cpu0.fetch2.amo_instructions                 0                       # Number of memory atomic instructions successfully decoded
system.cpu0.fetch2.fp_instructions                  0                       # Number of floating point instructions successfully decoded
system.cpu0.fetch2.int_instructions            627641                       # Number of integer instructions successfully decoded
system.cpu0.fetch2.load_instructions           158878                       # Number of memory load instructions successfully decoded
system.cpu0.fetch2.store_instructions           45036                       # Number of memory store instructions successfully decoded
system.cpu0.fetch2.vec_instructions                 0                       # Number of SIMD instructions successfully decoded
system.cpu0.idleCycles                        1039207                       # Total number of cycles that the object has spent stopped
system.cpu0.ipc                              0.269103                       # IPC: instructions per cycle
system.cpu0.itb.accesses                       345585                       # DTB accesses
system.cpu0.itb.align_faults                        0                       # Number of TLB faults due to alignment restrictions
system.cpu0.itb.domain_faults                       0                       # Number of TLB faults due to domain restrictions
system.cpu0.itb.flush_entries                       0                       # Number of entries that have been flushed from TLB
system.cpu0.itb.flush_tlb                           0                       # Number of times complete TLB was flushed
system.cpu0.itb.flush_tlb_asid                      3                       # Number of times TLB was flushed by ASID
system.cpu0.itb.flush_tlb_mva                       0                       # Number of times TLB was flushed by MVA
system.cpu0.itb.flush_tlb_mva_asid                140                       # Number of times TLB was flushed by MVA & ASID
system.cpu0.itb.hits                           345584                       # DTB hits
system.cpu0.itb.inst_accesses                  345585                       # ITB inst accesses
system.cpu0.itb.inst_hits                      345584                       # ITB inst hits
system.cpu0.itb.inst_misses                         1                       # ITB inst misses
system.cpu0.itb.misses                              1                       # DTB misses
system.cpu0.itb.perms_faults                        0                       # Number of TLB faults due to permissions restrictions
system.cpu0.itb.prefetch_faults                     0                       # Number of TLB faults due to prefetch
system.cpu0.itb.read_accesses                       0                       # DTB read accesses
system.cpu0.itb.read_hits                           0                       # DTB read hits
system.cpu0.itb.read_misses                         0                       # DTB read misses
system.cpu0.itb.stage2_mmu.stage2_tlb.accesses            0                       # DTB accesses
system.cpu0.itb.stage2_mmu.stage2_tlb.align_faults            0                       # Number of TLB faults due to alignment restrictions
system.cpu0.itb.stage2_mmu.stage2_tlb.domain_faults            0                       # Number of TLB faults due to domain restrictions
system.cpu0.itb.stage2_mmu.stage2_tlb.flush_entries            0                       # Number of entries that have been flushed from TLB
system.cpu0.itb.stage2_mmu.stage2_tlb.flush_tlb            0                       # Number of times complete TLB was flushed
system.cpu0.itb.stage2_mmu.stage2_tlb.flush_tlb_asid            0                       # Number of times TLB was flushed by ASID
system.cpu0.itb.stage2_mmu.stage2_tlb.flush_tlb_mva            0                       # Number of times TLB was flushed by MVA
system.cpu0.itb.stage2_mmu.stage2_tlb.flush_tlb_mva_asid            0                       # Number of times TLB was flushed by MVA & ASID
system.cpu0.itb.stage2_mmu.stage2_tlb.hits            0                       # DTB hits
system.cpu0.itb.stage2_mmu.stage2_tlb.inst_accesses            0                       # ITB inst accesses
system.cpu0.itb.stage2_mmu.stage2_tlb.inst_hits            0                       # ITB inst hits
system.cpu0.itb.stage2_mmu.stage2_tlb.inst_misses            0                       # ITB inst misses
system.cpu0.itb.stage2_mmu.stage2_tlb.misses            0                       # DTB misses
system.cpu0.itb.stage2_mmu.stage2_tlb.perms_faults            0                       # Number of TLB faults due to permissions restrictions
system.cpu0.itb.stage2_mmu.stage2_tlb.prefetch_faults            0                       # Number of TLB faults due to prefetch
system.cpu0.itb.stage2_mmu.stage2_tlb.read_accesses            0                       # DTB read accesses
system.cpu0.itb.stage2_mmu.stage2_tlb.read_hits            0                       # DTB read hits
system.cpu0.itb.stage2_mmu.stage2_tlb.read_misses            0                       # DTB read misses
system.cpu0.itb.stage2_mmu.stage2_tlb.walker.walkRequestOrigin_Requested::Data            0                       # Table walker requests started/completed, data/inst
system.cpu0.itb.stage2_mmu.stage2_tlb.walker.walkRequestOrigin_Requested::Inst            0                       # Table walker requests started/completed, data/inst
system.cpu0.itb.stage2_mmu.stage2_tlb.walker.walkRequestOrigin_Requested::total            0                       # Table walker requests started/completed, data/inst
system.cpu0.itb.stage2_mmu.stage2_tlb.walker.walkRequestOrigin_Completed::Data            0                       # Table walker requests started/completed, data/inst
system.cpu0.itb.stage2_mmu.stage2_tlb.walker.walkRequestOrigin_Completed::Inst            0                       # Table walker requests started/completed, data/inst
system.cpu0.itb.stage2_mmu.stage2_tlb.walker.walkRequestOrigin_Completed::total            0                       # Table walker requests started/completed, data/inst
system.cpu0.itb.stage2_mmu.stage2_tlb.walker.walkRequestOrigin::total            0                       # Table walker requests started/completed, data/inst
system.cpu0.itb.stage2_mmu.stage2_tlb.walker.walks            0                       # Table walker walks requested
system.cpu0.itb.stage2_mmu.stage2_tlb.write_accesses            0                       # DTB write accesses
system.cpu0.itb.stage2_mmu.stage2_tlb.write_hits            0                       # DTB write hits
system.cpu0.itb.stage2_mmu.stage2_tlb.write_misses            0                       # DTB write misses
system.cpu0.itb.walker.walkCompletionTime::samples            1                       # Table walker service (enqueue to completion) latency
system.cpu0.itb.walker.walkCompletionTime::mean        27132                       # Table walker service (enqueue to completion) latency
system.cpu0.itb.walker.walkCompletionTime::gmean 27132.000000                       # Table walker service (enqueue to completion) latency
system.cpu0.itb.walker.walkCompletionTime::26624-28671            1    100.00%    100.00% # Table walker service (enqueue to completion) latency
system.cpu0.itb.walker.walkCompletionTime::total            1                       # Table walker service (enqueue to completion) latency
system.cpu0.itb.walker.walkPageSizes::4K            1    100.00%    100.00% # Table walker page sizes translated
system.cpu0.itb.walker.walkPageSizes::total            1                       # Table walker page sizes translated
system.cpu0.itb.walker.walkRequestOrigin_Requested::Data            0                       # Table walker requests started/completed, data/inst
system.cpu0.itb.walker.walkRequestOrigin_Requested::Inst            1                       # Table walker requests started/completed, data/inst
system.cpu0.itb.walker.walkRequestOrigin_Requested::total            1                       # Table walker requests started/completed, data/inst
system.cpu0.itb.walker.walkRequestOrigin_Completed::Data            0                       # Table walker requests started/completed, data/inst
system.cpu0.itb.walker.walkRequestOrigin_Completed::Inst            1                       # Table walker requests started/completed, data/inst
system.cpu0.itb.walker.walkRequestOrigin_Completed::total            1                       # Table walker requests started/completed, data/inst
system.cpu0.itb.walker.walkRequestOrigin::total            2                       # Table walker requests started/completed, data/inst
system.cpu0.itb.walker.walkWaitTime::samples            1                       # Table walker wait (enqueue to first request) latency
system.cpu0.itb.walker.walkWaitTime::0              1    100.00%    100.00% # Table walker wait (enqueue to first request) latency
system.cpu0.itb.walker.walkWaitTime::total            1                       # Table walker wait (enqueue to first request) latency
system.cpu0.itb.walker.walks                        1                       # Table walker walks requested
system.cpu0.itb.walker.walksLong                    1                       # Table walker walks initiated with long descriptors
system.cpu0.itb.walker.walksLongTerminationLevel::Level3            1                       # Level at which table walker walks with long descriptors terminate
system.cpu0.itb.write_accesses                      0                       # DTB write accesses
system.cpu0.itb.write_hits                          0                       # DTB write hits
system.cpu0.itb.write_misses                        0                       # DTB write misses
system.cpu0.kern.inst.arm                           0                       # number of arm instructions executed
system.cpu0.kern.inst.quiesce                     138                       # number of quiesce instructions executed
system.cpu0.numCycles                         2318296                       # number of cpu cycles simulated
system.cpu0.numFetchSuspends                      138                       # Number of times Execute suspended instruction fetching
system.cpu0.numWorkItemsCompleted                   0                       # number of work items this cpu completed
system.cpu0.numWorkItemsStarted                     0                       # number of work items this cpu started
system.cpu0.op_class_0::No_OpClass                  0      0.00%      0.00% # Class of committed instruction
system.cpu0.op_class_0::IntAlu                 536930     65.11%     65.11% # Class of committed instruction
system.cpu0.op_class_0::IntMult                   485      0.06%     65.17% # Class of committed instruction
system.cpu0.op_class_0::IntDiv                     61      0.01%     65.18% # Class of committed instruction
system.cpu0.op_class_0::FloatAdd                    0      0.00%     65.18% # Class of committed instruction
system.cpu0.op_class_0::FloatCmp                    0      0.00%     65.18% # Class of committed instruction
system.cpu0.op_class_0::FloatCvt                    0      0.00%     65.18% # Class of committed instruction
system.cpu0.op_class_0::FloatMult                   0      0.00%     65.18% # Class of committed instruction
system.cpu0.op_class_0::FloatMultAcc                0      0.00%     65.18% # Class of committed instruction
system.cpu0.op_class_0::FloatDiv                    0      0.00%     65.18% # Class of committed instruction
system.cpu0.op_class_0::FloatMisc                   0      0.00%     65.18% # Class of committed instruction
system.cpu0.op_class_0::FloatSqrt                   0      0.00%     65.18% # Class of committed instruction
system.cpu0.op_class_0::SimdAdd                     0      0.00%     65.18% # Class of committed instruction
system.cpu0.op_class_0::SimdAddAcc                  0      0.00%     65.18% # Class of committed instruction
system.cpu0.op_class_0::SimdAlu                     0      0.00%     65.18% # Class of committed instruction
system.cpu0.op_class_0::SimdCmp                     0      0.00%     65.18% # Class of committed instruction
system.cpu0.op_class_0::SimdCvt                     0      0.00%     65.18% # Class of committed instruction
system.cpu0.op_class_0::SimdMisc                    0      0.00%     65.18% # Class of committed instruction
system.cpu0.op_class_0::SimdMult                    0      0.00%     65.18% # Class of committed instruction
system.cpu0.op_class_0::SimdMultAcc                 0      0.00%     65.18% # Class of committed instruction
system.cpu0.op_class_0::SimdShift                   0      0.00%     65.18% # Class of committed instruction
system.cpu0.op_class_0::SimdShiftAcc                0      0.00%     65.18% # Class of committed instruction
system.cpu0.op_class_0::SimdDiv                     0      0.00%     65.18% # Class of committed instruction
system.cpu0.op_class_0::SimdSqrt                    0      0.00%     65.18% # Class of committed instruction
system.cpu0.op_class_0::SimdFloatAdd                0      0.00%     65.18% # Class of committed instruction
system.cpu0.op_class_0::SimdFloatAlu                0      0.00%     65.18% # Class of committed instruction
system.cpu0.op_class_0::SimdFloatCmp                0      0.00%     65.18% # Class of committed instruction
system.cpu0.op_class_0::SimdFloatCvt                0      0.00%     65.18% # Class of committed instruction
system.cpu0.op_class_0::SimdFloatDiv                0      0.00%     65.18% # Class of committed instruction
system.cpu0.op_class_0::SimdFloatMisc               0      0.00%     65.18% # Class of committed instruction
system.cpu0.op_class_0::SimdFloatMult               0      0.00%     65.18% # Class of committed instruction
system.cpu0.op_class_0::SimdFloatMultAcc            0      0.00%     65.18% # Class of committed instruction
system.cpu0.op_class_0::SimdFloatSqrt               0      0.00%     65.18% # Class of committed instruction
system.cpu0.op_class_0::SimdReduceAdd               0      0.00%     65.18% # Class of committed instruction
system.cpu0.op_class_0::SimdReduceAlu               0      0.00%     65.18% # Class of committed instruction
system.cpu0.op_class_0::SimdReduceCmp               0      0.00%     65.18% # Class of committed instruction
system.cpu0.op_class_0::SimdFloatReduceAdd            0      0.00%     65.18% # Class of committed instruction
system.cpu0.op_class_0::SimdFloatReduceCmp            0      0.00%     65.18% # Class of committed instruction
system.cpu0.op_class_0::SimdAes                     0      0.00%     65.18% # Class of committed instruction
system.cpu0.op_class_0::SimdAesMix                  0      0.00%     65.18% # Class of committed instruction
system.cpu0.op_class_0::SimdSha1Hash                0      0.00%     65.18% # Class of committed instruction
system.cpu0.op_class_0::SimdSha1Hash2               0      0.00%     65.18% # Class of committed instruction
system.cpu0.op_class_0::SimdSha256Hash              0      0.00%     65.18% # Class of committed instruction
system.cpu0.op_class_0::SimdSha256Hash2             0      0.00%     65.18% # Class of committed instruction
system.cpu0.op_class_0::SimdShaSigma2               0      0.00%     65.18% # Class of committed instruction
system.cpu0.op_class_0::SimdShaSigma3               0      0.00%     65.18% # Class of committed instruction
system.cpu0.op_class_0::SimdPredAlu                 0      0.00%     65.18% # Class of committed instruction
system.cpu0.op_class_0::MemRead                147413     17.88%     83.05% # Class of committed instruction
system.cpu0.op_class_0::MemWrite               139738     16.95%    100.00% # Class of committed instruction
system.cpu0.op_class_0::FloatMemRead                0      0.00%    100.00% # Class of committed instruction
system.cpu0.op_class_0::FloatMemWrite               0      0.00%    100.00% # Class of committed instruction
system.cpu0.op_class_0::IprAccess                   0      0.00%    100.00% # Class of committed instruction
system.cpu0.op_class_0::InstPrefetch                0      0.00%    100.00% # Class of committed instruction
system.cpu0.op_class_0::total                  824627                       # Class of committed instruction
system.cpu0.quiesceCycles                   970283433                       # Total number of cycles that CPU has spent quiesced or waiting for an interrupt
system.cpu0.tickCycles                        1279089                       # Number of cycles that the object actually ticked
system.cpu1.branchPred.BTBCorrect                   0                       # Number of correct BTB predictions (this stat may not work properly.
system.cpu1.branchPred.BTBHitPct            27.063245                       # BTB Hit Percentage
system.cpu1.branchPred.BTBHits                  42410                       # Number of BTB hits
system.cpu1.branchPred.BTBLookups              156707                       # Number of BTB lookups
system.cpu1.branchPred.RASInCorrect              1775                       # Number of incorrect RAS predictions.
system.cpu1.branchPred.condIncorrect            24783                       # Number of conditional branches incorrect
system.cpu1.branchPred.condPredicted           114913                       # Number of conditional branches predicted
system.cpu1.branchPred.indirectHits              1594                       # Number of indirect target hits.
system.cpu1.branchPred.indirectLookups           2303                       # Number of indirect predictor lookups.
system.cpu1.branchPred.indirectMisses             709                       # Number of indirect misses.
system.cpu1.branchPred.lookups                 196151                       # Number of BP lookups
system.cpu1.branchPred.usedRAS                  32719                       # Number of times the RAS was used to get a target.
system.cpu1.branchPredindirectMispredicted          387                       # Number of mispredicted indirect branches.
system.cpu1.committedInsts                     558735                       # Number of instructions committed
system.cpu1.committedOps                       678141                       # Number of ops (including micro ops) committed
system.cpu1.cpi                              3.569708                       # CPI: cycles per instruction
system.cpu1.dcache.prefetcher.num_hwpf_issued         1494                       # number of hwpf issued
system.cpu1.dcache.prefetcher.pfBufferHit         1429                       # number of redundant prefetches already in prefetch queue
system.cpu1.dcache.prefetcher.pfIdentified         4532                       # number of prefetch candidates identified
system.cpu1.dcache.prefetcher.pfInCache             0                       # number of redundant prefetches already in cache/mshr dropped
system.cpu1.dcache.prefetcher.pfRemovedFull          298                       # number of prefetches dropped due to prefetch queue size
system.cpu1.dcache.prefetcher.pfSpanPage          328                       # number of prefetches that crossed the page
system.cpu1.discardedOps                        79742                       # Number of ops (including micro ops) which were discarded before commit
system.cpu1.dtb.accesses                       238357                       # DTB accesses
system.cpu1.dtb.align_faults                        4                       # Number of TLB faults due to alignment restrictions
system.cpu1.dtb.domain_faults                       0                       # Number of TLB faults due to domain restrictions
system.cpu1.dtb.flush_entries                      10                       # Number of entries that have been flushed from TLB
system.cpu1.dtb.flush_tlb                           0                       # Number of times complete TLB was flushed
system.cpu1.dtb.flush_tlb_asid                      3                       # Number of times TLB was flushed by ASID
system.cpu1.dtb.flush_tlb_mva                       0                       # Number of times TLB was flushed by MVA
system.cpu1.dtb.flush_tlb_mva_asid                140                       # Number of times TLB was flushed by MVA & ASID
system.cpu1.dtb.hits                           237125                       # DTB hits
system.cpu1.dtb.inst_accesses                       0                       # ITB inst accesses
system.cpu1.dtb.inst_hits                           0                       # ITB inst hits
system.cpu1.dtb.inst_misses                         0                       # ITB inst misses
system.cpu1.dtb.misses                           1232                       # DTB misses
system.cpu1.dtb.perms_faults                      109                       # Number of TLB faults due to permissions restrictions
system.cpu1.dtb.prefetch_faults                    31                       # Number of TLB faults due to prefetch
system.cpu1.dtb.read_accesses                  137797                       # DTB read accesses
system.cpu1.dtb.read_hits                      136759                       # DTB read hits
system.cpu1.dtb.read_misses                      1038                       # DTB read misses
system.cpu1.dtb.stage2_mmu.stage2_tlb.accesses            0                       # DTB accesses
system.cpu1.dtb.stage2_mmu.stage2_tlb.align_faults            0                       # Number of TLB faults due to alignment restrictions
system.cpu1.dtb.stage2_mmu.stage2_tlb.domain_faults            0                       # Number of TLB faults due to domain restrictions
system.cpu1.dtb.stage2_mmu.stage2_tlb.flush_entries            0                       # Number of entries that have been flushed from TLB
system.cpu1.dtb.stage2_mmu.stage2_tlb.flush_tlb            0                       # Number of times complete TLB was flushed
system.cpu1.dtb.stage2_mmu.stage2_tlb.flush_tlb_asid            0                       # Number of times TLB was flushed by ASID
system.cpu1.dtb.stage2_mmu.stage2_tlb.flush_tlb_mva            0                       # Number of times TLB was flushed by MVA
system.cpu1.dtb.stage2_mmu.stage2_tlb.flush_tlb_mva_asid            0                       # Number of times TLB was flushed by MVA & ASID
system.cpu1.dtb.stage2_mmu.stage2_tlb.hits            0                       # DTB hits
system.cpu1.dtb.stage2_mmu.stage2_tlb.inst_accesses            0                       # ITB inst accesses
system.cpu1.dtb.stage2_mmu.stage2_tlb.inst_hits            0                       # ITB inst hits
system.cpu1.dtb.stage2_mmu.stage2_tlb.inst_misses            0                       # ITB inst misses
system.cpu1.dtb.stage2_mmu.stage2_tlb.misses            0                       # DTB misses
system.cpu1.dtb.stage2_mmu.stage2_tlb.perms_faults            0                       # Number of TLB faults due to permissions restrictions
system.cpu1.dtb.stage2_mmu.stage2_tlb.prefetch_faults            0                       # Number of TLB faults due to prefetch
system.cpu1.dtb.stage2_mmu.stage2_tlb.read_accesses            0                       # DTB read accesses
system.cpu1.dtb.stage2_mmu.stage2_tlb.read_hits            0                       # DTB read hits
system.cpu1.dtb.stage2_mmu.stage2_tlb.read_misses            0                       # DTB read misses
system.cpu1.dtb.stage2_mmu.stage2_tlb.walker.walkRequestOrigin_Requested::Data            0                       # Table walker requests started/completed, data/inst
system.cpu1.dtb.stage2_mmu.stage2_tlb.walker.walkRequestOrigin_Requested::Inst            0                       # Table walker requests started/completed, data/inst
system.cpu1.dtb.stage2_mmu.stage2_tlb.walker.walkRequestOrigin_Requested::total            0                       # Table walker requests started/completed, data/inst
system.cpu1.dtb.stage2_mmu.stage2_tlb.walker.walkRequestOrigin_Completed::Data            0                       # Table walker requests started/completed, data/inst
system.cpu1.dtb.stage2_mmu.stage2_tlb.walker.walkRequestOrigin_Completed::Inst            0                       # Table walker requests started/completed, data/inst
system.cpu1.dtb.stage2_mmu.stage2_tlb.walker.walkRequestOrigin_Completed::total            0                       # Table walker requests started/completed, data/inst
system.cpu1.dtb.stage2_mmu.stage2_tlb.walker.walkRequestOrigin::total            0                       # Table walker requests started/completed, data/inst
system.cpu1.dtb.stage2_mmu.stage2_tlb.walker.walks            0                       # Table walker walks requested
system.cpu1.dtb.stage2_mmu.stage2_tlb.write_accesses            0                       # DTB write accesses
system.cpu1.dtb.stage2_mmu.stage2_tlb.write_hits            0                       # DTB write hits
system.cpu1.dtb.stage2_mmu.stage2_tlb.write_misses            0                       # DTB write misses
system.cpu1.dtb.walker.walkCompletionTime::samples          110                       # Table walker service (enqueue to completion) latency
system.cpu1.dtb.walker.walkCompletionTime::mean 33025.745455                       # Table walker service (enqueue to completion) latency
system.cpu1.dtb.walker.walkCompletionTime::gmean 21026.779039                       # Table walker service (enqueue to completion) latency
system.cpu1.dtb.walker.walkCompletionTime::stdev 46920.141143                       # Table walker service (enqueue to completion) latency
system.cpu1.dtb.walker.walkCompletionTime::0-16383           59     53.64%     53.64% # Table walker service (enqueue to completion) latency
system.cpu1.dtb.walker.walkCompletionTime::16384-32767           35     31.82%     85.45% # Table walker service (enqueue to completion) latency
system.cpu1.dtb.walker.walkCompletionTime::32768-49151            2      1.82%     87.27% # Table walker service (enqueue to completion) latency
system.cpu1.dtb.walker.walkCompletionTime::98304-114687            4      3.64%     90.91% # Table walker service (enqueue to completion) latency
system.cpu1.dtb.walker.walkCompletionTime::114688-131071            5      4.55%     95.45% # Table walker service (enqueue to completion) latency
system.cpu1.dtb.walker.walkCompletionTime::147456-163839            1      0.91%     96.36% # Table walker service (enqueue to completion) latency
system.cpu1.dtb.walker.walkCompletionTime::212992-229375            4      3.64%    100.00% # Table walker service (enqueue to completion) latency
system.cpu1.dtb.walker.walkCompletionTime::total          110                       # Table walker service (enqueue to completion) latency
system.cpu1.dtb.walker.walkPageSizes::4K          110    100.00%    100.00% # Table walker page sizes translated
system.cpu1.dtb.walker.walkPageSizes::total          110                       # Table walker page sizes translated
system.cpu1.dtb.walker.walkRequestOrigin_Requested::Data         1232                       # Table walker requests started/completed, data/inst
system.cpu1.dtb.walker.walkRequestOrigin_Requested::Inst            0                       # Table walker requests started/completed, data/inst
system.cpu1.dtb.walker.walkRequestOrigin_Requested::total         1232                       # Table walker requests started/completed, data/inst
system.cpu1.dtb.walker.walkRequestOrigin_Completed::Data          110                       # Table walker requests started/completed, data/inst
system.cpu1.dtb.walker.walkRequestOrigin_Completed::Inst            0                       # Table walker requests started/completed, data/inst
system.cpu1.dtb.walker.walkRequestOrigin_Completed::total          110                       # Table walker requests started/completed, data/inst
system.cpu1.dtb.walker.walkRequestOrigin::total         1342                       # Table walker requests started/completed, data/inst
system.cpu1.dtb.walker.walkWaitTime::samples         1232                       # Table walker wait (enqueue to first request) latency
system.cpu1.dtb.walker.walkWaitTime::0           1232    100.00%    100.00% # Table walker wait (enqueue to first request) latency
system.cpu1.dtb.walker.walkWaitTime::total         1232                       # Table walker wait (enqueue to first request) latency
system.cpu1.dtb.walker.walks                     1232                       # Table walker walks requested
system.cpu1.dtb.walker.walksLong                 1232                       # Table walker walks initiated with long descriptors
system.cpu1.dtb.walker.walksLongTerminationLevel::Level3          110                       # Level at which table walker walks with long descriptors terminate
system.cpu1.dtb.write_accesses                 100560                       # DTB write accesses
system.cpu1.dtb.write_hits                     100366                       # DTB write hits
system.cpu1.dtb.write_misses                      194                       # DTB write misses
system.cpu1.fetch2.amo_instructions                 0                       # Number of memory atomic instructions successfully decoded
system.cpu1.fetch2.fp_instructions                  0                       # Number of floating point instructions successfully decoded
system.cpu1.fetch2.int_instructions            507332                       # Number of integer instructions successfully decoded
system.cpu1.fetch2.load_instructions           137551                       # Number of memory load instructions successfully decoded
system.cpu1.fetch2.store_instructions           42712                       # Number of memory store instructions successfully decoded
system.cpu1.fetch2.vec_instructions                17                       # Number of SIMD instructions successfully decoded
system.cpu1.idleCycles                        1007731                       # Total number of cycles that the object has spent stopped
system.cpu1.ipc                              0.280135                       # IPC: instructions per cycle
system.cpu1.itb.accesses                       268430                       # DTB accesses
system.cpu1.itb.align_faults                        0                       # Number of TLB faults due to alignment restrictions
system.cpu1.itb.domain_faults                       0                       # Number of TLB faults due to domain restrictions
system.cpu1.itb.flush_entries                       0                       # Number of entries that have been flushed from TLB
system.cpu1.itb.flush_tlb                           0                       # Number of times complete TLB was flushed
system.cpu1.itb.flush_tlb_asid                      3                       # Number of times TLB was flushed by ASID
system.cpu1.itb.flush_tlb_mva                       0                       # Number of times TLB was flushed by MVA
system.cpu1.itb.flush_tlb_mva_asid                140                       # Number of times TLB was flushed by MVA & ASID
system.cpu1.itb.hits                           268299                       # DTB hits
system.cpu1.itb.inst_accesses                  268430                       # ITB inst accesses
system.cpu1.itb.inst_hits                      268299                       # ITB inst hits
system.cpu1.itb.inst_misses                       131                       # ITB inst misses
system.cpu1.itb.misses                            131                       # DTB misses
system.cpu1.itb.perms_faults                      162                       # Number of TLB faults due to permissions restrictions
system.cpu1.itb.prefetch_faults                     0                       # Number of TLB faults due to prefetch
system.cpu1.itb.read_accesses                       0                       # DTB read accesses
system.cpu1.itb.read_hits                           0                       # DTB read hits
system.cpu1.itb.read_misses                         0                       # DTB read misses
system.cpu1.itb.stage2_mmu.stage2_tlb.accesses            0                       # DTB accesses
system.cpu1.itb.stage2_mmu.stage2_tlb.align_faults            0                       # Number of TLB faults due to alignment restrictions
system.cpu1.itb.stage2_mmu.stage2_tlb.domain_faults            0                       # Number of TLB faults due to domain restrictions
system.cpu1.itb.stage2_mmu.stage2_tlb.flush_entries            0                       # Number of entries that have been flushed from TLB
system.cpu1.itb.stage2_mmu.stage2_tlb.flush_tlb            0                       # Number of times complete TLB was flushed
system.cpu1.itb.stage2_mmu.stage2_tlb.flush_tlb_asid            0                       # Number of times TLB was flushed by ASID
system.cpu1.itb.stage2_mmu.stage2_tlb.flush_tlb_mva            0                       # Number of times TLB was flushed by MVA
system.cpu1.itb.stage2_mmu.stage2_tlb.flush_tlb_mva_asid            0                       # Number of times TLB was flushed by MVA & ASID
system.cpu1.itb.stage2_mmu.stage2_tlb.hits            0                       # DTB hits
system.cpu1.itb.stage2_mmu.stage2_tlb.inst_accesses            0                       # ITB inst accesses
system.cpu1.itb.stage2_mmu.stage2_tlb.inst_hits            0                       # ITB inst hits
system.cpu1.itb.stage2_mmu.stage2_tlb.inst_misses            0                       # ITB inst misses
system.cpu1.itb.stage2_mmu.stage2_tlb.misses            0                       # DTB misses
system.cpu1.itb.stage2_mmu.stage2_tlb.perms_faults            0                       # Number of TLB faults due to permissions restrictions
system.cpu1.itb.stage2_mmu.stage2_tlb.prefetch_faults            0                       # Number of TLB faults due to prefetch
system.cpu1.itb.stage2_mmu.stage2_tlb.read_accesses            0                       # DTB read accesses
system.cpu1.itb.stage2_mmu.stage2_tlb.read_hits            0                       # DTB read hits
system.cpu1.itb.stage2_mmu.stage2_tlb.read_misses            0                       # DTB read misses
system.cpu1.itb.stage2_mmu.stage2_tlb.walker.walkRequestOrigin_Requested::Data            0                       # Table walker requests started/completed, data/inst
system.cpu1.itb.stage2_mmu.stage2_tlb.walker.walkRequestOrigin_Requested::Inst            0                       # Table walker requests started/completed, data/inst
system.cpu1.itb.stage2_mmu.stage2_tlb.walker.walkRequestOrigin_Requested::total            0                       # Table walker requests started/completed, data/inst
system.cpu1.itb.stage2_mmu.stage2_tlb.walker.walkRequestOrigin_Completed::Data            0                       # Table walker requests started/completed, data/inst
system.cpu1.itb.stage2_mmu.stage2_tlb.walker.walkRequestOrigin_Completed::Inst            0                       # Table walker requests started/completed, data/inst
system.cpu1.itb.stage2_mmu.stage2_tlb.walker.walkRequestOrigin_Completed::total            0                       # Table walker requests started/completed, data/inst
system.cpu1.itb.stage2_mmu.stage2_tlb.walker.walkRequestOrigin::total            0                       # Table walker requests started/completed, data/inst
system.cpu1.itb.stage2_mmu.stage2_tlb.walker.walks            0                       # Table walker walks requested
system.cpu1.itb.stage2_mmu.stage2_tlb.write_accesses            0                       # DTB write accesses
system.cpu1.itb.stage2_mmu.stage2_tlb.write_hits            0                       # DTB write hits
system.cpu1.itb.stage2_mmu.stage2_tlb.write_misses            0                       # DTB write misses
system.cpu1.itb.walker.walkCompletionTime::samples          107                       # Table walker service (enqueue to completion) latency
system.cpu1.itb.walker.walkCompletionTime::mean 33311.102804                       # Table walker service (enqueue to completion) latency
system.cpu1.itb.walker.walkCompletionTime::gmean 20664.509039                       # Table walker service (enqueue to completion) latency
system.cpu1.itb.walker.walkCompletionTime::stdev 42322.718715                       # Table walker service (enqueue to completion) latency
system.cpu1.itb.walker.walkCompletionTime::0-16383           67     62.62%     62.62% # Table walker service (enqueue to completion) latency
system.cpu1.itb.walker.walkCompletionTime::16384-32767           21     19.63%     82.24% # Table walker service (enqueue to completion) latency
system.cpu1.itb.walker.walkCompletionTime::32768-49151            1      0.93%     83.18% # Table walker service (enqueue to completion) latency
system.cpu1.itb.walker.walkCompletionTime::49152-65535            1      0.93%     84.11% # Table walker service (enqueue to completion) latency
system.cpu1.itb.walker.walkCompletionTime::98304-114687            5      4.67%     88.79% # Table walker service (enqueue to completion) latency
system.cpu1.itb.walker.walkCompletionTime::114688-131071           10      9.35%     98.13% # Table walker service (enqueue to completion) latency
system.cpu1.itb.walker.walkCompletionTime::180224-196607            1      0.93%     99.07% # Table walker service (enqueue to completion) latency
system.cpu1.itb.walker.walkCompletionTime::212992-229375            1      0.93%    100.00% # Table walker service (enqueue to completion) latency
system.cpu1.itb.walker.walkCompletionTime::total          107                       # Table walker service (enqueue to completion) latency
system.cpu1.itb.walker.walkPageSizes::4K          107    100.00%    100.00% # Table walker page sizes translated
system.cpu1.itb.walker.walkPageSizes::total          107                       # Table walker page sizes translated
system.cpu1.itb.walker.walkRequestOrigin_Requested::Data            0                       # Table walker requests started/completed, data/inst
system.cpu1.itb.walker.walkRequestOrigin_Requested::Inst          131                       # Table walker requests started/completed, data/inst
system.cpu1.itb.walker.walkRequestOrigin_Requested::total          131                       # Table walker requests started/completed, data/inst
system.cpu1.itb.walker.walkRequestOrigin_Completed::Data            0                       # Table walker requests started/completed, data/inst
system.cpu1.itb.walker.walkRequestOrigin_Completed::Inst          107                       # Table walker requests started/completed, data/inst
system.cpu1.itb.walker.walkRequestOrigin_Completed::total          107                       # Table walker requests started/completed, data/inst
system.cpu1.itb.walker.walkRequestOrigin::total          238                       # Table walker requests started/completed, data/inst
system.cpu1.itb.walker.walkWaitTime::samples          131                       # Table walker wait (enqueue to first request) latency
system.cpu1.itb.walker.walkWaitTime::0            131    100.00%    100.00% # Table walker wait (enqueue to first request) latency
system.cpu1.itb.walker.walkWaitTime::total          131                       # Table walker wait (enqueue to first request) latency
system.cpu1.itb.walker.walks                      131                       # Table walker walks requested
system.cpu1.itb.walker.walksLong                  131                       # Table walker walks initiated with long descriptors
system.cpu1.itb.walker.walksLongTerminationLevel::Level3          107                       # Level at which table walker walks with long descriptors terminate
system.cpu1.itb.write_accesses                      0                       # DTB write accesses
system.cpu1.itb.write_hits                          0                       # DTB write hits
system.cpu1.itb.write_misses                        0                       # DTB write misses
system.cpu1.kern.inst.arm                           0                       # number of arm instructions executed
system.cpu1.kern.inst.quiesce                      19                       # number of quiesce instructions executed
system.cpu1.numCycles                         1994521                       # number of cpu cycles simulated
system.cpu1.numFetchSuspends                       19                       # Number of times Execute suspended instruction fetching
system.cpu1.numWorkItemsCompleted                   0                       # number of work items this cpu completed
system.cpu1.numWorkItemsStarted                     0                       # number of work items this cpu started
system.cpu1.op_class_0::No_OpClass                  1      0.00%      0.00% # Class of committed instruction
system.cpu1.op_class_0::IntAlu                 453410     66.86%     66.86% # Class of committed instruction
system.cpu1.op_class_0::IntMult                   587      0.09%     66.95% # Class of committed instruction
system.cpu1.op_class_0::IntDiv                    134      0.02%     66.97% # Class of committed instruction
system.cpu1.op_class_0::FloatAdd                    0      0.00%     66.97% # Class of committed instruction
system.cpu1.op_class_0::FloatCmp                    0      0.00%     66.97% # Class of committed instruction
system.cpu1.op_class_0::FloatCvt                    0      0.00%     66.97% # Class of committed instruction
system.cpu1.op_class_0::FloatMult                   0      0.00%     66.97% # Class of committed instruction
system.cpu1.op_class_0::FloatMultAcc                0      0.00%     66.97% # Class of committed instruction
system.cpu1.op_class_0::FloatDiv                    0      0.00%     66.97% # Class of committed instruction
system.cpu1.op_class_0::FloatMisc                   0      0.00%     66.97% # Class of committed instruction
system.cpu1.op_class_0::FloatSqrt                   0      0.00%     66.97% # Class of committed instruction
system.cpu1.op_class_0::SimdAdd                     5      0.00%     66.97% # Class of committed instruction
system.cpu1.op_class_0::SimdAddAcc                  0      0.00%     66.97% # Class of committed instruction
system.cpu1.op_class_0::SimdAlu                     4      0.00%     66.97% # Class of committed instruction
system.cpu1.op_class_0::SimdCmp                     4      0.00%     66.97% # Class of committed instruction
system.cpu1.op_class_0::SimdCvt                     0      0.00%     66.97% # Class of committed instruction
system.cpu1.op_class_0::SimdMisc                    4      0.00%     66.97% # Class of committed instruction
system.cpu1.op_class_0::SimdMult                    0      0.00%     66.97% # Class of committed instruction
system.cpu1.op_class_0::SimdMultAcc                 0      0.00%     66.97% # Class of committed instruction
system.cpu1.op_class_0::SimdShift                   0      0.00%     66.97% # Class of committed instruction
system.cpu1.op_class_0::SimdShiftAcc                0      0.00%     66.97% # Class of committed instruction
system.cpu1.op_class_0::SimdDiv                     0      0.00%     66.97% # Class of committed instruction
system.cpu1.op_class_0::SimdSqrt                    0      0.00%     66.97% # Class of committed instruction
system.cpu1.op_class_0::SimdFloatAdd                0      0.00%     66.97% # Class of committed instruction
system.cpu1.op_class_0::SimdFloatAlu                0      0.00%     66.97% # Class of committed instruction
system.cpu1.op_class_0::SimdFloatCmp                0      0.00%     66.97% # Class of committed instruction
system.cpu1.op_class_0::SimdFloatCvt                0      0.00%     66.97% # Class of committed instruction
system.cpu1.op_class_0::SimdFloatDiv                0      0.00%     66.97% # Class of committed instruction
system.cpu1.op_class_0::SimdFloatMisc               0      0.00%     66.97% # Class of committed instruction
system.cpu1.op_class_0::SimdFloatMult               0      0.00%     66.97% # Class of committed instruction
system.cpu1.op_class_0::SimdFloatMultAcc            0      0.00%     66.97% # Class of committed instruction
system.cpu1.op_class_0::SimdFloatSqrt               0      0.00%     66.97% # Class of committed instruction
system.cpu1.op_class_0::SimdReduceAdd               0      0.00%     66.97% # Class of committed instruction
system.cpu1.op_class_0::SimdReduceAlu               0      0.00%     66.97% # Class of committed instruction
system.cpu1.op_class_0::SimdReduceCmp               0      0.00%     66.97% # Class of committed instruction
system.cpu1.op_class_0::SimdFloatReduceAdd            0      0.00%     66.97% # Class of committed instruction
system.cpu1.op_class_0::SimdFloatReduceCmp            0      0.00%     66.97% # Class of committed instruction
system.cpu1.op_class_0::SimdAes                     0      0.00%     66.97% # Class of committed instruction
system.cpu1.op_class_0::SimdAesMix                  0      0.00%     66.97% # Class of committed instruction
system.cpu1.op_class_0::SimdSha1Hash                0      0.00%     66.97% # Class of committed instruction
system.cpu1.op_class_0::SimdSha1Hash2               0      0.00%     66.97% # Class of committed instruction
system.cpu1.op_class_0::SimdSha256Hash              0      0.00%     66.97% # Class of committed instruction
system.cpu1.op_class_0::SimdSha256Hash2             0      0.00%     66.97% # Class of committed instruction
system.cpu1.op_class_0::SimdShaSigma2               0      0.00%     66.97% # Class of committed instruction
system.cpu1.op_class_0::SimdShaSigma3               0      0.00%     66.97% # Class of committed instruction
system.cpu1.op_class_0::SimdPredAlu                 0      0.00%     66.97% # Class of committed instruction
system.cpu1.op_class_0::MemRead                124708     18.39%     85.36% # Class of committed instruction
system.cpu1.op_class_0::MemWrite                99284     14.64%    100.00% # Class of committed instruction
system.cpu1.op_class_0::FloatMemRead                0      0.00%    100.00% # Class of committed instruction
system.cpu1.op_class_0::FloatMemWrite               0      0.00%    100.00% # Class of committed instruction
system.cpu1.op_class_0::IprAccess                   0      0.00%    100.00% # Class of committed instruction
system.cpu1.op_class_0::InstPrefetch                0      0.00%    100.00% # Class of committed instruction
system.cpu1.op_class_0::total                  678141                       # Class of committed instruction
system.cpu1.quiesceCycles                   974548657                       # Total number of cycles that CPU has spent quiesced or waiting for an interrupt
system.cpu1.tickCycles                         986790                       # Number of cycles that the object actually ticked
system.cpu2.branchPred.BTBCorrect                   0                       # Number of correct BTB predictions (this stat may not work properly.
system.cpu2.branchPred.BTBHitPct            27.979666                       # BTB Hit Percentage
system.cpu2.branchPred.BTBHits                  42216                       # Number of BTB hits
system.cpu2.branchPred.BTBLookups              150881                       # Number of BTB lookups
system.cpu2.branchPred.RASInCorrect              1717                       # Number of incorrect RAS predictions.
system.cpu2.branchPred.condIncorrect            25963                       # Number of conditional branches incorrect
system.cpu2.branchPred.condPredicted           107680                       # Number of conditional branches predicted
system.cpu2.branchPred.indirectHits              1669                       # Number of indirect target hits.
system.cpu2.branchPred.indirectLookups           3123                       # Number of indirect predictor lookups.
system.cpu2.branchPred.indirectMisses            1454                       # Number of indirect misses.
system.cpu2.branchPred.lookups                 187113                       # Number of BP lookups
system.cpu2.branchPred.usedRAS                  31649                       # Number of times the RAS was used to get a target.
system.cpu2.branchPredindirectMispredicted          563                       # Number of mispredicted indirect branches.
system.cpu2.committedInsts                     502273                       # Number of instructions committed
system.cpu2.committedOps                       632561                       # Number of ops (including micro ops) committed
system.cpu2.cpi                              5.006927                       # CPI: cycles per instruction
system.cpu2.dcache.prefetcher.num_hwpf_issued         1826                       # number of hwpf issued
system.cpu2.dcache.prefetcher.pfBufferHit         1355                       # number of redundant prefetches already in prefetch queue
system.cpu2.dcache.prefetcher.pfIdentified         4634                       # number of prefetch candidates identified
system.cpu2.dcache.prefetcher.pfInCache             0                       # number of redundant prefetches already in cache/mshr dropped
system.cpu2.dcache.prefetcher.pfRemovedFull          120                       # number of prefetches dropped due to prefetch queue size
system.cpu2.dcache.prefetcher.pfSpanPage          382                       # number of prefetches that crossed the page
system.cpu2.discardedOps                        87428                       # Number of ops (including micro ops) which were discarded before commit
system.cpu2.dtb.accesses                       234949                       # DTB accesses
system.cpu2.dtb.align_faults                        6                       # Number of TLB faults due to alignment restrictions
system.cpu2.dtb.domain_faults                       0                       # Number of TLB faults due to domain restrictions
system.cpu2.dtb.flush_entries                     176                       # Number of entries that have been flushed from TLB
system.cpu2.dtb.flush_tlb                           0                       # Number of times complete TLB was flushed
system.cpu2.dtb.flush_tlb_asid                      3                       # Number of times TLB was flushed by ASID
system.cpu2.dtb.flush_tlb_mva                       0                       # Number of times TLB was flushed by MVA
system.cpu2.dtb.flush_tlb_mva_asid                140                       # Number of times TLB was flushed by MVA & ASID
system.cpu2.dtb.hits                           233767                       # DTB hits
system.cpu2.dtb.inst_accesses                       0                       # ITB inst accesses
system.cpu2.dtb.inst_hits                           0                       # ITB inst hits
system.cpu2.dtb.inst_misses                         0                       # ITB inst misses
system.cpu2.dtb.misses                           1182                       # DTB misses
system.cpu2.dtb.perms_faults                      140                       # Number of TLB faults due to permissions restrictions
system.cpu2.dtb.prefetch_faults                    42                       # Number of TLB faults due to prefetch
system.cpu2.dtb.read_accesses                  123982                       # DTB read accesses
system.cpu2.dtb.read_hits                      122988                       # DTB read hits
system.cpu2.dtb.read_misses                       994                       # DTB read misses
system.cpu2.dtb.stage2_mmu.stage2_tlb.accesses            0                       # DTB accesses
system.cpu2.dtb.stage2_mmu.stage2_tlb.align_faults            0                       # Number of TLB faults due to alignment restrictions
system.cpu2.dtb.stage2_mmu.stage2_tlb.domain_faults            0                       # Number of TLB faults due to domain restrictions
system.cpu2.dtb.stage2_mmu.stage2_tlb.flush_entries            0                       # Number of entries that have been flushed from TLB
system.cpu2.dtb.stage2_mmu.stage2_tlb.flush_tlb            0                       # Number of times complete TLB was flushed
system.cpu2.dtb.stage2_mmu.stage2_tlb.flush_tlb_asid            0                       # Number of times TLB was flushed by ASID
system.cpu2.dtb.stage2_mmu.stage2_tlb.flush_tlb_mva            0                       # Number of times TLB was flushed by MVA
system.cpu2.dtb.stage2_mmu.stage2_tlb.flush_tlb_mva_asid            0                       # Number of times TLB was flushed by MVA & ASID
system.cpu2.dtb.stage2_mmu.stage2_tlb.hits            0                       # DTB hits
system.cpu2.dtb.stage2_mmu.stage2_tlb.inst_accesses            0                       # ITB inst accesses
system.cpu2.dtb.stage2_mmu.stage2_tlb.inst_hits            0                       # ITB inst hits
system.cpu2.dtb.stage2_mmu.stage2_tlb.inst_misses            0                       # ITB inst misses
system.cpu2.dtb.stage2_mmu.stage2_tlb.misses            0                       # DTB misses
system.cpu2.dtb.stage2_mmu.stage2_tlb.perms_faults            0                       # Number of TLB faults due to permissions restrictions
system.cpu2.dtb.stage2_mmu.stage2_tlb.prefetch_faults            0                       # Number of TLB faults due to prefetch
system.cpu2.dtb.stage2_mmu.stage2_tlb.read_accesses            0                       # DTB read accesses
system.cpu2.dtb.stage2_mmu.stage2_tlb.read_hits            0                       # DTB read hits
system.cpu2.dtb.stage2_mmu.stage2_tlb.read_misses            0                       # DTB read misses
system.cpu2.dtb.stage2_mmu.stage2_tlb.walker.walkRequestOrigin_Requested::Data            0                       # Table walker requests started/completed, data/inst
system.cpu2.dtb.stage2_mmu.stage2_tlb.walker.walkRequestOrigin_Requested::Inst            0                       # Table walker requests started/completed, data/inst
system.cpu2.dtb.stage2_mmu.stage2_tlb.walker.walkRequestOrigin_Requested::total            0                       # Table walker requests started/completed, data/inst
system.cpu2.dtb.stage2_mmu.stage2_tlb.walker.walkRequestOrigin_Completed::Data            0                       # Table walker requests started/completed, data/inst
system.cpu2.dtb.stage2_mmu.stage2_tlb.walker.walkRequestOrigin_Completed::Inst            0                       # Table walker requests started/completed, data/inst
system.cpu2.dtb.stage2_mmu.stage2_tlb.walker.walkRequestOrigin_Completed::total            0                       # Table walker requests started/completed, data/inst
system.cpu2.dtb.stage2_mmu.stage2_tlb.walker.walkRequestOrigin::total            0                       # Table walker requests started/completed, data/inst
system.cpu2.dtb.stage2_mmu.stage2_tlb.walker.walks            0                       # Table walker walks requested
system.cpu2.dtb.stage2_mmu.stage2_tlb.write_accesses            0                       # DTB write accesses
system.cpu2.dtb.stage2_mmu.stage2_tlb.write_hits            0                       # DTB write hits
system.cpu2.dtb.stage2_mmu.stage2_tlb.write_misses            0                       # DTB write misses
system.cpu2.dtb.walker.walkCompletionTime::samples          174                       # Table walker service (enqueue to completion) latency
system.cpu2.dtb.walker.walkCompletionTime::mean 50193.379310                       # Table walker service (enqueue to completion) latency
system.cpu2.dtb.walker.walkCompletionTime::gmean 30250.967491                       # Table walker service (enqueue to completion) latency
system.cpu2.dtb.walker.walkCompletionTime::stdev 55907.688759                       # Table walker service (enqueue to completion) latency
system.cpu2.dtb.walker.walkCompletionTime::0-32767          117     67.24%     67.24% # Table walker service (enqueue to completion) latency
system.cpu2.dtb.walker.walkCompletionTime::32768-65535            7      4.02%     71.26% # Table walker service (enqueue to completion) latency
system.cpu2.dtb.walker.walkCompletionTime::65536-98303            1      0.57%     71.84% # Table walker service (enqueue to completion) latency
system.cpu2.dtb.walker.walkCompletionTime::98304-131071           40     22.99%     94.83% # Table walker service (enqueue to completion) latency
system.cpu2.dtb.walker.walkCompletionTime::131072-163839            3      1.72%     96.55% # Table walker service (enqueue to completion) latency
system.cpu2.dtb.walker.walkCompletionTime::163840-196607            1      0.57%     97.13% # Table walker service (enqueue to completion) latency
system.cpu2.dtb.walker.walkCompletionTime::196608-229375            1      0.57%     97.70% # Table walker service (enqueue to completion) latency
system.cpu2.dtb.walker.walkCompletionTime::229376-262143            2      1.15%     98.85% # Table walker service (enqueue to completion) latency
system.cpu2.dtb.walker.walkCompletionTime::262144-294911            1      0.57%     99.43% # Table walker service (enqueue to completion) latency
system.cpu2.dtb.walker.walkCompletionTime::294912-327679            1      0.57%    100.00% # Table walker service (enqueue to completion) latency
system.cpu2.dtb.walker.walkCompletionTime::total          174                       # Table walker service (enqueue to completion) latency
system.cpu2.dtb.walker.walkPageSizes::4K          172     98.85%     98.85% # Table walker page sizes translated
system.cpu2.dtb.walker.walkPageSizes::2M            2      1.15%    100.00% # Table walker page sizes translated
system.cpu2.dtb.walker.walkPageSizes::total          174                       # Table walker page sizes translated
system.cpu2.dtb.walker.walkRequestOrigin_Requested::Data         1182                       # Table walker requests started/completed, data/inst
system.cpu2.dtb.walker.walkRequestOrigin_Requested::Inst            0                       # Table walker requests started/completed, data/inst
system.cpu2.dtb.walker.walkRequestOrigin_Requested::total         1182                       # Table walker requests started/completed, data/inst
system.cpu2.dtb.walker.walkRequestOrigin_Completed::Data          174                       # Table walker requests started/completed, data/inst
system.cpu2.dtb.walker.walkRequestOrigin_Completed::Inst            0                       # Table walker requests started/completed, data/inst
system.cpu2.dtb.walker.walkRequestOrigin_Completed::total          174                       # Table walker requests started/completed, data/inst
system.cpu2.dtb.walker.walkRequestOrigin::total         1356                       # Table walker requests started/completed, data/inst
system.cpu2.dtb.walker.walkWaitTime::samples         1182                       # Table walker wait (enqueue to first request) latency
system.cpu2.dtb.walker.walkWaitTime::0           1182    100.00%    100.00% # Table walker wait (enqueue to first request) latency
system.cpu2.dtb.walker.walkWaitTime::total         1182                       # Table walker wait (enqueue to first request) latency
system.cpu2.dtb.walker.walks                     1182                       # Table walker walks requested
system.cpu2.dtb.walker.walksLong                 1182                       # Table walker walks initiated with long descriptors
system.cpu2.dtb.walker.walksLongTerminationLevel::Level2            2                       # Level at which table walker walks with long descriptors terminate
system.cpu2.dtb.walker.walksLongTerminationLevel::Level3          172                       # Level at which table walker walks with long descriptors terminate
system.cpu2.dtb.write_accesses                 110967                       # DTB write accesses
system.cpu2.dtb.write_hits                     110779                       # DTB write hits
system.cpu2.dtb.write_misses                      188                       # DTB write misses
system.cpu2.fetch2.amo_instructions                 0                       # Number of memory atomic instructions successfully decoded
system.cpu2.fetch2.fp_instructions                  0                       # Number of floating point instructions successfully decoded
system.cpu2.fetch2.int_instructions            477699                       # Number of integer instructions successfully decoded
system.cpu2.fetch2.load_instructions           121359                       # Number of memory load instructions successfully decoded
system.cpu2.fetch2.store_instructions           47263                       # Number of memory store instructions successfully decoded
system.cpu2.fetch2.vec_instructions                 0                       # Number of SIMD instructions successfully decoded
system.cpu2.idleCycles                        1531604                       # Total number of cycles that the object has spent stopped
system.cpu2.ipc                              0.199723                       # IPC: instructions per cycle
system.cpu2.itb.accesses                       261898                       # DTB accesses
system.cpu2.itb.align_faults                        0                       # Number of TLB faults due to alignment restrictions
system.cpu2.itb.domain_faults                       0                       # Number of TLB faults due to domain restrictions
system.cpu2.itb.flush_entries                     265                       # Number of entries that have been flushed from TLB
system.cpu2.itb.flush_tlb                           0                       # Number of times complete TLB was flushed
system.cpu2.itb.flush_tlb_asid                      3                       # Number of times TLB was flushed by ASID
system.cpu2.itb.flush_tlb_mva                       0                       # Number of times TLB was flushed by MVA
system.cpu2.itb.flush_tlb_mva_asid                140                       # Number of times TLB was flushed by MVA & ASID
system.cpu2.itb.hits                           261587                       # DTB hits
system.cpu2.itb.inst_accesses                  261898                       # ITB inst accesses
system.cpu2.itb.inst_hits                      261587                       # ITB inst hits
system.cpu2.itb.inst_misses                       311                       # ITB inst misses
system.cpu2.itb.misses                            311                       # DTB misses
system.cpu2.itb.perms_faults                      148                       # Number of TLB faults due to permissions restrictions
system.cpu2.itb.prefetch_faults                     0                       # Number of TLB faults due to prefetch
system.cpu2.itb.read_accesses                       0                       # DTB read accesses
system.cpu2.itb.read_hits                           0                       # DTB read hits
system.cpu2.itb.read_misses                         0                       # DTB read misses
system.cpu2.itb.stage2_mmu.stage2_tlb.accesses            0                       # DTB accesses
system.cpu2.itb.stage2_mmu.stage2_tlb.align_faults            0                       # Number of TLB faults due to alignment restrictions
system.cpu2.itb.stage2_mmu.stage2_tlb.domain_faults            0                       # Number of TLB faults due to domain restrictions
system.cpu2.itb.stage2_mmu.stage2_tlb.flush_entries            0                       # Number of entries that have been flushed from TLB
system.cpu2.itb.stage2_mmu.stage2_tlb.flush_tlb            0                       # Number of times complete TLB was flushed
system.cpu2.itb.stage2_mmu.stage2_tlb.flush_tlb_asid            0                       # Number of times TLB was flushed by ASID
system.cpu2.itb.stage2_mmu.stage2_tlb.flush_tlb_mva            0                       # Number of times TLB was flushed by MVA
system.cpu2.itb.stage2_mmu.stage2_tlb.flush_tlb_mva_asid            0                       # Number of times TLB was flushed by MVA & ASID
system.cpu2.itb.stage2_mmu.stage2_tlb.hits            0                       # DTB hits
system.cpu2.itb.stage2_mmu.stage2_tlb.inst_accesses            0                       # ITB inst accesses
system.cpu2.itb.stage2_mmu.stage2_tlb.inst_hits            0                       # ITB inst hits
system.cpu2.itb.stage2_mmu.stage2_tlb.inst_misses            0                       # ITB inst misses
system.cpu2.itb.stage2_mmu.stage2_tlb.misses            0                       # DTB misses
system.cpu2.itb.stage2_mmu.stage2_tlb.perms_faults            0                       # Number of TLB faults due to permissions restrictions
system.cpu2.itb.stage2_mmu.stage2_tlb.prefetch_faults            0                       # Number of TLB faults due to prefetch
system.cpu2.itb.stage2_mmu.stage2_tlb.read_accesses            0                       # DTB read accesses
system.cpu2.itb.stage2_mmu.stage2_tlb.read_hits            0                       # DTB read hits
system.cpu2.itb.stage2_mmu.stage2_tlb.read_misses            0                       # DTB read misses
system.cpu2.itb.stage2_mmu.stage2_tlb.walker.walkRequestOrigin_Requested::Data            0                       # Table walker requests started/completed, data/inst
system.cpu2.itb.stage2_mmu.stage2_tlb.walker.walkRequestOrigin_Requested::Inst            0                       # Table walker requests started/completed, data/inst
system.cpu2.itb.stage2_mmu.stage2_tlb.walker.walkRequestOrigin_Requested::total            0                       # Table walker requests started/completed, data/inst
system.cpu2.itb.stage2_mmu.stage2_tlb.walker.walkRequestOrigin_Completed::Data            0                       # Table walker requests started/completed, data/inst
system.cpu2.itb.stage2_mmu.stage2_tlb.walker.walkRequestOrigin_Completed::Inst            0                       # Table walker requests started/completed, data/inst
system.cpu2.itb.stage2_mmu.stage2_tlb.walker.walkRequestOrigin_Completed::total            0                       # Table walker requests started/completed, data/inst
system.cpu2.itb.stage2_mmu.stage2_tlb.walker.walkRequestOrigin::total            0                       # Table walker requests started/completed, data/inst
system.cpu2.itb.stage2_mmu.stage2_tlb.walker.walks            0                       # Table walker walks requested
system.cpu2.itb.stage2_mmu.stage2_tlb.write_accesses            0                       # DTB write accesses
system.cpu2.itb.stage2_mmu.stage2_tlb.write_hits            0                       # DTB write hits
system.cpu2.itb.stage2_mmu.stage2_tlb.write_misses            0                       # DTB write misses
system.cpu2.itb.walker.walkCompletionTime::samples          311                       # Table walker service (enqueue to completion) latency
system.cpu2.itb.walker.walkCompletionTime::mean 38900.372990                       # Table walker service (enqueue to completion) latency
system.cpu2.itb.walker.walkCompletionTime::gmean 23110.292911                       # Table walker service (enqueue to completion) latency
system.cpu2.itb.walker.walkCompletionTime::stdev 48345.313864                       # Table walker service (enqueue to completion) latency
system.cpu2.itb.walker.walkCompletionTime::0-32767          248     79.74%     79.74% # Table walker service (enqueue to completion) latency
[...]
system.cpu1.dcache.WriteReq_miss_rate::total     0.024884                       # miss rate for WriteReq accesses
system.cpu1.dcache.WriteReq_avg_miss_latency::.cpu1.data 42175.927711                       # average WriteReq miss latency
system.cpu1.dcache.WriteReq_avg_miss_latency::total 42175.927711                       # average WriteReq miss latency
system.cpu1.dcache.WriteReq_mshr_hits::.cpu1.data         1746                       # number of WriteReq MSHR hits
system.cpu1.dcache.WriteReq_mshr_hits::total         1746                       # number of WriteReq MSHR hits
system.cpu1.dcache.WriteReq_mshr_misses::.cpu1.data         2487                       # number of WriteReq MSHR misses
system.cpu1.dcache.WriteReq_mshr_misses::total         2487                       # number of WriteReq MSHR misses
system.cpu1.dcache.WriteReq_mshr_uncacheable::.cpu1.data           13                       # number of WriteReq MSHR uncacheable
system.cpu1.dcache.WriteReq_mshr_uncacheable::total           13                       # number of WriteReq MSHR uncacheable
system.cpu1.dcache.WriteReq_mshr_miss_latency::.cpu1.data     98766906                       # number of WriteReq MSHR miss cycles
system.cpu1.dcache.WriteReq_mshr_miss_latency::total     98766906                       # number of WriteReq MSHR miss cycles
system.cpu1.dcache.WriteReq_mshr_miss_rate::.cpu1.data     0.014620                       # mshr miss rate for WriteReq accesses
system.cpu1.dcache.WriteReq_mshr_miss_rate::total     0.014620                       # mshr miss rate for WriteReq accesses
system.cpu1.dcache.WriteReq_avg_mshr_miss_latency::.cpu1.data 39713.271411                       # average WriteReq mshr miss latency
system.cpu1.dcache.WriteReq_avg_mshr_miss_latency::total 39713.271411                       # average WriteReq mshr miss latency
system.cpu1.dcache.SoftPFReq_hits::.cpu1.data            9                       # number of SoftPFReq hits
system.cpu1.dcache.SoftPFReq_hits::total            9                       # number of SoftPFReq hits
system.cpu1.dcache.SoftPFReq_misses::.cpu1.data           47                       # number of SoftPFReq misses
system.cpu1.dcache.SoftPFReq_misses::total           47                       # number of SoftPFReq misses
system.cpu1.dcache.SoftPFReq_accesses::.cpu1.data           56                       # number of SoftPFReq accesses(hits+misses)
system.cpu1.dcache.SoftPFReq_accesses::total           56                       # number of SoftPFReq accesses(hits+misses)
system.cpu1.dcache.SoftPFReq_miss_rate::.cpu1.data     0.839286                       # miss rate for SoftPFReq accesses
system.cpu1.dcache.SoftPFReq_miss_rate::total     0.839286                       # miss rate for SoftPFReq accesses
system.cpu1.dcache.SoftPFReq_mshr_misses::.cpu1.data           47                       # number of SoftPFReq MSHR misses
system.cpu1.dcache.SoftPFReq_mshr_misses::total           47                       # number of SoftPFReq MSHR misses
system.cpu1.dcache.SoftPFReq_mshr_miss_latency::.cpu1.data      3188724                       # number of SoftPFReq MSHR miss cycles
system.cpu1.dcache.SoftPFReq_mshr_miss_latency::total      3188724                       # number of SoftPFReq MSHR miss cycles
system.cpu1.dcache.SoftPFReq_mshr_miss_rate::.cpu1.data     0.839286                       # mshr miss rate for SoftPFReq accesses
system.cpu1.dcache.SoftPFReq_mshr_miss_rate::total     0.839286                       # mshr miss rate for SoftPFReq accesses
system.cpu1.dcache.SoftPFReq_avg_mshr_miss_latency::.cpu1.data 67845.191489                       # average SoftPFReq mshr miss latency
system.cpu1.dcache.SoftPFReq_avg_mshr_miss_latency::total 67845.191489                       # average SoftPFReq mshr miss latency
system.cpu1.dcache.SoftPFExReq_hits::.cpu1.data         9392                       # number of SoftPFExReq hits
system.cpu1.dcache.SoftPFExReq_hits::total         9392                       # number of SoftPFExReq hits
system.cpu1.dcache.SoftPFExReq_misses::.cpu1.data          503                       # number of SoftPFExReq misses
system.cpu1.dcache.SoftPFExReq_misses::total          503                       # number of SoftPFExReq misses
system.cpu1.dcache.SoftPFExReq_accesses::.cpu1.data         9895                       # number of SoftPFExReq accesses(hits+misses)
system.cpu1.dcache.SoftPFExReq_accesses::total         9895                       # number of SoftPFExReq accesses(hits+misses)
system.cpu1.dcache.SoftPFExReq_miss_rate::.cpu1.data     0.050834                       # miss rate for SoftPFExReq accesses
system.cpu1.dcache.SoftPFExReq_miss_rate::total     0.050834                       # miss rate for SoftPFExReq accesses
system.cpu1.dcache.SoftPFExReq_mshr_misses::.cpu1.data          479                       # number of SoftPFExReq MSHR misses
system.cpu1.dcache.SoftPFExReq_mshr_misses::total          479                       # number of SoftPFExReq MSHR misses
system.cpu1.dcache.SoftPFExReq_mshr_miss_latency::.cpu1.data      9501912                       # number of SoftPFExReq MSHR miss cycles
system.cpu1.dcache.SoftPFExReq_mshr_miss_latency::total      9501912                       # number of SoftPFExReq MSHR miss cycles
system.cpu1.dcache.SoftPFExReq_mshr_miss_rate::.cpu1.data     0.048408                       # mshr miss rate for SoftPFExReq accesses
system.cpu1.dcache.SoftPFExReq_mshr_miss_rate::total     0.048408                       # mshr miss rate for SoftPFExReq accesses
system.cpu1.dcache.SoftPFExReq_avg_mshr_miss_latency::.cpu1.data 19836.977035                       # average SoftPFExReq mshr miss latency
system.cpu1.dcache.SoftPFExReq_avg_mshr_miss_latency::total 19836.977035                       # average SoftPFExReq mshr miss latency
system.cpu1.dcache.HardPFReq_mshr_misses::.cpu1.dcache.prefetcher         2774                       # number of HardPFReq MSHR misses
system.cpu1.dcache.HardPFReq_mshr_misses::total         2774                       # number of HardPFReq MSHR misses
system.cpu1.dcache.HardPFReq_mshr_miss_latency::.cpu1.dcache.prefetcher    159564668                       # number of HardPFReq MSHR miss cycles
system.cpu1.dcache.HardPFReq_mshr_miss_latency::total    159564668                       # number of HardPFReq MSHR miss cycles
system.cpu1.dcache.HardPFReq_mshr_miss_rate::.cpu1.dcache.prefetcher          inf                       # mshr miss rate for HardPFReq accesses
system.cpu1.dcache.HardPFReq_mshr_miss_rate::total          inf                       # mshr miss rate for HardPFReq accesses
system.cpu1.dcache.HardPFReq_avg_mshr_miss_latency::.cpu1.dcache.prefetcher 57521.509733                       # average HardPFReq mshr miss latency
system.cpu1.dcache.HardPFReq_avg_mshr_miss_latency::total 57521.509733                       # average HardPFReq mshr miss latency
system.cpu1.dcache.WriteLineReq_hits::.cpu1.data          175                       # number of WriteLineReq hits
system.cpu1.dcache.WriteLineReq_hits::total          175                       # number of WriteLineReq hits
system.cpu1.dcache.WriteLineReq_misses::.cpu1.data         1999                       # number of WriteLineReq misses
system.cpu1.dcache.WriteLineReq_misses::total         1999                       # number of WriteLineReq misses
system.cpu1.dcache.WriteLineReq_miss_latency::.cpu1.data     79139018                       # number of WriteLineReq miss cycles
system.cpu1.dcache.WriteLineReq_miss_latency::total     79139018                       # number of WriteLineReq miss cycles
system.cpu1.dcache.WriteLineReq_accesses::.cpu1.data         2174                       # number of WriteLineReq accesses(hits+misses)
system.cpu1.dcache.WriteLineReq_accesses::total         2174                       # number of WriteLineReq accesses(hits+misses)
system.cpu1.dcache.WriteLineReq_miss_rate::.cpu1.data     0.919503                       # miss rate for WriteLineReq accesses
system.cpu1.dcache.WriteLineReq_miss_rate::total     0.919503                       # miss rate for WriteLineReq accesses
system.cpu1.dcache.WriteLineReq_avg_miss_latency::.cpu1.data 39589.303652                       # average WriteLineReq miss latency
system.cpu1.dcache.WriteLineReq_avg_miss_latency::total 39589.303652                       # average WriteLineReq miss latency
system.cpu1.dcache.WriteLineReq_mshr_hits::.cpu1.data         1097                       # number of WriteLineReq MSHR hits
system.cpu1.dcache.WriteLineReq_mshr_hits::total         1097                       # number of WriteLineReq MSHR hits
system.cpu1.dcache.WriteLineReq_mshr_misses::.cpu1.data          902                       # number of WriteLineReq MSHR misses
system.cpu1.dcache.WriteLineReq_mshr_misses::total          902                       # number of WriteLineReq MSHR misses
system.cpu1.dcache.WriteLineReq_mshr_miss_latency::.cpu1.data     16012136                       # number of WriteLineReq MSHR miss cycles
system.cpu1.dcache.WriteLineReq_mshr_miss_latency::total     16012136                       # number of WriteLineReq MSHR miss cycles
system.cpu1.dcache.WriteLineReq_mshr_miss_rate::.cpu1.data     0.414903                       # mshr miss rate for WriteLineReq accesses
system.cpu1.dcache.WriteLineReq_mshr_miss_rate::total     0.414903                       # mshr miss rate for WriteLineReq accesses
system.cpu1.dcache.WriteLineReq_avg_mshr_miss_latency::.cpu1.data 17751.813747                       # average WriteLineReq mshr miss latency
system.cpu1.dcache.WriteLineReq_avg_mshr_miss_latency::total 17751.813747                       # average WriteLineReq mshr miss latency
system.cpu1.dcache.LoadLockedReq_hits::.cpu1.data         8858                       # number of LoadLockedReq hits
system.cpu1.dcache.LoadLockedReq_hits::total         8858                       # number of LoadLockedReq hits
system.cpu1.dcache.LoadLockedReq_misses::.cpu1.data          387                       # number of LoadLockedReq misses
system.cpu1.dcache.LoadLockedReq_misses::total          387                       # number of LoadLockedReq misses
system.cpu1.dcache.LoadLockedReq_miss_latency::.cpu1.data      8867880                       # number of LoadLockedReq miss cycles
system.cpu1.dcache.LoadLockedReq_miss_latency::total      8867880                       # number of LoadLockedReq miss cycles
system.cpu1.dcache.LoadLockedReq_accesses::.cpu1.data         9245                       # number of LoadLockedReq accesses(hits+misses)
system.cpu1.dcache.LoadLockedReq_accesses::total         9245                       # number of LoadLockedReq accesses(hits+misses)
system.cpu1.dcache.LoadLockedReq_miss_rate::.cpu1.data     0.041860                       # miss rate for LoadLockedReq accesses
system.cpu1.dcache.LoadLockedReq_miss_rate::total     0.041860                       # miss rate for LoadLockedReq accesses
system.cpu1.dcache.LoadLockedReq_avg_miss_latency::.cpu1.data 22914.418605                       # average LoadLockedReq miss latency
system.cpu1.dcache.LoadLockedReq_avg_miss_latency::total 22914.418605                       # average LoadLockedReq miss latency
system.cpu1.dcache.LoadLockedReq_mshr_hits::.cpu1.data          300                       # number of LoadLockedReq MSHR hits
system.cpu1.dcache.LoadLockedReq_mshr_hits::total          300                       # number of LoadLockedReq MSHR hits
system.cpu1.dcache.LoadLockedReq_mshr_misses::.cpu1.data           87                       # number of LoadLockedReq MSHR misses
system.cpu1.dcache.LoadLockedReq_mshr_misses::total           87                       # number of LoadLockedReq MSHR misses
system.cpu1.dcache.LoadLockedReq_mshr_miss_latency::.cpu1.data      2200548                       # number of LoadLockedReq MSHR miss cycles
system.cpu1.dcache.LoadLockedReq_mshr_miss_latency::total      2200548                       # number of LoadLockedReq MSHR miss cycles
system.cpu1.dcache.LoadLockedReq_mshr_miss_rate::.cpu1.data     0.009410                       # mshr miss rate for LoadLockedReq accesses
system.cpu1.dcache.LoadLockedReq_mshr_miss_rate::total     0.009410                       # mshr miss rate for LoadLockedReq accesses
system.cpu1.dcache.LoadLockedReq_avg_mshr_miss_latency::.cpu1.data 25293.655172                       # average LoadLockedReq mshr miss latency
system.cpu1.dcache.LoadLockedReq_avg_mshr_miss_latency::total 25293.655172                       # average LoadLockedReq mshr miss latency
system.cpu1.dcache.StoreCondReq_hits::.cpu1.data         9232                       # number of StoreCondReq hits
system.cpu1.dcache.StoreCondReq_hits::total         9232                       # number of StoreCondReq hits
system.cpu1.dcache.StoreCondReq_misses::.cpu1.data            1                       # number of StoreCondReq misses
system.cpu1.dcache.StoreCondReq_misses::total            1                       # number of StoreCondReq misses
system.cpu1.dcache.StoreCondReq_miss_latency::.cpu1.data         4284                       # number of StoreCondReq miss cycles
system.cpu1.dcache.StoreCondReq_miss_latency::total         4284                       # number of StoreCondReq miss cycles
system.cpu1.dcache.StoreCondReq_accesses::.cpu1.data         9233                       # number of StoreCondReq accesses(hits+misses)
system.cpu1.dcache.StoreCondReq_accesses::total         9233                       # number of StoreCondReq accesses(hits+misses)
system.cpu1.dcache.StoreCondReq_miss_rate::.cpu1.data     0.000108                       # miss rate for StoreCondReq accesses
system.cpu1.dcache.StoreCondReq_miss_rate::total     0.000108                       # miss rate for StoreCondReq accesses
system.cpu1.dcache.StoreCondReq_avg_miss_latency::.cpu1.data         4284                       # average StoreCondReq miss latency
system.cpu1.dcache.StoreCondReq_avg_miss_latency::total         4284                       # average StoreCondReq miss latency
system.cpu1.dcache.StoreCondReq_mshr_misses::.cpu1.data            1                       # number of StoreCondReq MSHR misses
system.cpu1.dcache.StoreCondReq_mshr_misses::total            1                       # number of StoreCondReq MSHR misses
system.cpu1.dcache.StoreCondReq_mshr_miss_latency::.cpu1.data         3570                       # number of StoreCondReq MSHR miss cycles
system.cpu1.dcache.StoreCondReq_mshr_miss_latency::total         3570                       # number of StoreCondReq MSHR miss cycles
system.cpu1.dcache.StoreCondReq_mshr_miss_rate::.cpu1.data     0.000108                       # mshr miss rate for StoreCondReq accesses
system.cpu1.dcache.StoreCondReq_mshr_miss_rate::total     0.000108                       # mshr miss rate for StoreCondReq accesses
system.cpu1.dcache.StoreCondReq_avg_mshr_miss_latency::.cpu1.data         3570                       # average StoreCondReq mshr miss latency
system.cpu1.dcache.StoreCondReq_avg_mshr_miss_latency::total         3570                       # average StoreCondReq mshr miss latency
system.cpu1.dcache.CleanSharedReq_miss_latency::.cpu1.data      3400782                       # number of CleanSharedReq miss cycles
system.cpu1.dcache.CleanSharedReq_miss_latency::total      3400782                       # number of CleanSharedReq miss cycles
system.cpu1.dcache.CleanSharedReq_avg_miss_latency::.cpu1.data          inf                       # average CleanSharedReq miss latency
system.cpu1.dcache.CleanSharedReq_avg_miss_latency::total          inf                       # average CleanSharedReq miss latency
system.cpu1.dcache.CleanSharedReq_mshr_misses::.cpu1.data          768                       # number of CleanSharedReq MSHR misses
system.cpu1.dcache.CleanSharedReq_mshr_misses::total          768                       # number of CleanSharedReq MSHR misses
system.cpu1.dcache.CleanSharedReq_mshr_miss_latency::.cpu1.data      2391212                       # number of CleanSharedReq MSHR miss cycles
system.cpu1.dcache.CleanSharedReq_mshr_miss_latency::total      2391212                       # number of CleanSharedReq MSHR miss cycles
system.cpu1.dcache.CleanSharedReq_mshr_miss_rate::.cpu1.data          inf                       # mshr miss rate for CleanSharedReq accesses
system.cpu1.dcache.CleanSharedReq_mshr_miss_rate::total          inf                       # mshr miss rate for CleanSharedReq accesses
system.cpu1.dcache.CleanSharedReq_avg_mshr_miss_latency::.cpu1.data  3113.557292                       # average CleanSharedReq mshr miss latency
system.cpu1.dcache.CleanSharedReq_avg_mshr_miss_latency::total  3113.557292                       # average CleanSharedReq mshr miss latency
system.cpu1.dcache.prefetcher.pwrStateResidencyTicks::UNDEFINED 47149254048608288                       # Cumulative time (in ticks) in various power states
system.cpu1.dcache.tags.pwrStateResidencyTicks::UNDEFINED 47149254048608288                       # Cumulative time (in ticks) in various power states
system.cpu1.dcache.tags.tagsinuse          224.739673                       # Cycle average of tags in use
system.cpu1.dcache.tags.total_refs             439118                       # Total number of references to valid blocks.
system.cpu1.dcache.tags.sampled_refs            17068                       # Sample count of references to valid blocks.
system.cpu1.dcache.tags.avg_refs            25.727560                       # Average number of references to valid blocks.
system.cpu1.dcache.tags.warmup_cycle                0                       # Cycle when the warmup percentage was hit.
system.cpu1.dcache.tags.occ_blocks::.cpu1.data   222.604004                       # Average occupied blocks per requestor
system.cpu1.dcache.tags.occ_blocks::.cpu1.dcache.prefetcher     2.135669                       # Average occupied blocks per requestor
system.cpu1.dcache.tags.occ_percent::.cpu1.data     0.869547                       # Average percentage of cache occupancy
system.cpu1.dcache.tags.occ_percent::.cpu1.dcache.prefetcher     0.008342                       # Average percentage of cache occupancy
system.cpu1.dcache.tags.occ_percent::total     0.877889                       # Average percentage of cache occupancy
system.cpu1.dcache.tags.occ_task_id_blocks::1022           39                       # Occupied blocks per task id
system.cpu1.dcache.tags.occ_task_id_blocks::1024          217                       # Occupied blocks per task id
system.cpu1.dcache.tags.age_task_id_blocks_1022::1           39                       # Occupied blocks per task id
system.cpu1.dcache.tags.age_task_id_blocks_1024::0           34                       # Occupied blocks per task id
system.cpu1.dcache.tags.age_task_id_blocks_1024::1          167                       # Occupied blocks per task id
system.cpu1.dcache.tags.age_task_id_blocks_1024::2           16                       # Occupied blocks per task id
system.cpu1.dcache.tags.occ_task_id_percent::1022     0.152344                       # Percentage of cache occupancy per task id
system.cpu1.dcache.tags.occ_task_id_percent::1024     0.847656                       # Percentage of cache occupancy per task id
system.cpu1.dcache.tags.tag_accesses           884507                       # Number of tag accesses
system.cpu1.dcache.tags.data_accesses          884507                       # Number of data accesses
system.cpu1.itb.walker.pwrStateResidencyTicks::UNDEFINED 47149254048608288                       # Cumulative time (in ticks) in various power states
system.cpu1.itb.stage2_mmu.stage2_tlb.walker.pwrStateResidencyTicks::UNDEFINED 47149254048608288                       # Cumulative time (in ticks) in various power states
system.cpu_clk_domain.clock                       714                       # Clock period in ticks
system.pci_ide.pwrStateResidencyTicks::UNDEFINED 47149254048608288                       # Cumulative time (in ticks) in various power states

---------- End Simulation Statistics   ----------
