
---------- Begin Simulation Statistics ----------
final_tick                               47147595921871536                       # Number of ticks from beginning of simulation (restored from checkpoints and never reset)
host_inst_rate                                 508369                       # Simulator instruction rate (inst/s)
host_mem_usage                                6329644                       # Number of bytes of host memory used
host_op_rate                                   623490                       # Simulator op (including micro ops) rate (op/s)
host_seconds                                    83.41                       # Real time elapsed on the host
host_tick_rate                              578231007                       # Simulator tick rate (ticks/s)
sim_freq                                 1000000000000                       # Frequency of simulated ticks
sim_insts                                    42403510                       # Number of instructions simulated
sim_ops                                      52005899                       # Number of ops (including micro ops) simulated
sim_seconds                                  0.048231                       # Number of seconds simulated
sim_ticks                                 48230823522                       # Number of ticks simulated
system.cpu0.branchPred.BTBCorrect                   0                       # Number of correct BTB predictions (this stat may not work properly.
system.cpu0.branchPred.BTBHitPct            17.603210                       # BTB Hit Percentage
system.cpu0.branchPred.BTBHits                  25315                       # Number of BTB hits
system.cpu0.branchPred.BTBLookups              143809                       # Number of BTB lookups
system.cpu0.branchPred.RASInCorrect              4721                       # Number of incorrect RAS predictions.
system.cpu0.branchPred.condIncorrect            29328                       # Number of conditional branches incorrect
system.cpu0.branchPred.condPredicted            83119                       # Number of conditional branches predicted
system.cpu0.branchPred.indirectHits              2463                       # Number of indirect target hits.
system.cpu0.branchPred.indirectLookups           3664                       # Number of indirect predictor lookups.
system.cpu0.branchPred.indirectMisses            1201                       # Number of indirect misses.
system.cpu0.branchPred.lookups                 199731                       # Number of BP lookups
system.cpu0.branchPred.usedRAS                  54429                       # Number of times the RAS was used to get a target.
system.cpu0.branchPredindirectMispredicted          157                       # Number of mispredicted indirect branches.
system.cpu0.committedInsts                     476477                       # Number of instructions committed
system.cpu0.committedOps                       634705                       # Number of ops (including micro ops) committed
system.cpu0.cpi                              2.254837                       # CPI: cycles per instruction
system.cpu0.dcache.prefetcher.num_hwpf_issued            3                       # number of hwpf issued
system.cpu0.dcache.prefetcher.pfBufferHit            0                       # number of redundant prefetches already in prefetch queue
system.cpu0.dcache.prefetcher.pfIdentified            3                       # number of prefetch candidates identified
system.cpu0.dcache.prefetcher.pfInCache             0                       # number of redundant prefetches already in cache/mshr dropped
system.cpu0.dcache.prefetcher.pfRemovedFull            0                       # number of prefetches dropped due to prefetch queue size
system.cpu0.dcache.prefetcher.pfSpanPage           33                       # number of prefetches that crossed the page
system.cpu0.discardedOps                        96784                       # Number of ops (including micro ops) which were discarded before commit
system.cpu0.dtb.accesses                       239863                       # DTB accesses
system.cpu0.dtb.align_faults                        0                       # Number of TLB faults due to alignment restrictions
system.cpu0.dtb.domain_faults                       0                       # Number of TLB faults due to domain restrictions
system.cpu0.dtb.flush_entries                       0                       # Number of entries that have been flushed from TLB
system.cpu0.dtb.flush_tlb                           0                       # Number of times complete TLB was flushed
system.cpu0.dtb.flush_tlb_asid                      0                       # Number of times TLB was flushed by ASID
system.cpu0.dtb.flush_tlb_mva                       0                       # Number of times TLB was flushed by MVA
system.cpu0.dtb.flush_tlb_mva_asid                  0                       # Number of times TLB was flushed by MVA & ASID
system.cpu0.dtb.hits                           238821                       # DTB hits
system.cpu0.dtb.inst_accesses                       0                       # ITB inst accesses
system.cpu0.dtb.inst_hits                           0                       # ITB inst hits
system.cpu0.dtb.inst_misses                         0                       # ITB inst misses
system.cpu0.dtb.misses                           1042                       # DTB misses
system.cpu0.dtb.perms_faults                        9                       # Number of TLB faults due to permissions restrictions
system.cpu0.dtb.prefetch_faults                     9                       # Number of TLB faults due to prefetch
system.cpu0.dtb.read_accesses                  128075                       # DTB read accesses
system.cpu0.dtb.read_hits                      127292                       # DTB read hits
system.cpu0.dtb.read_misses                       783                       # DTB read misses
system.cpu0.dtb.stage2_mmu.stage2_tlb.accesses            0                       # DTB accesses
system.cpu0.dtb.stage2_mmu.stage2_tlb.align_faults            0                       # Number of TLB faults due to alignment restrictions
system.cpu0.dtb.stage2_mmu.stage2_tlb.domain_faults            0                       # Number of TLB faults due to domain restrictions
system.cpu0.dtb.stage2_mmu.stage2_tlb.flush_entries            0                       # Number of entries that have been flushed from TLB
system.cpu0.dtb.stage2_mmu.stage2_tlb.flush_tlb            0                       # Number of times complete TLB was flushed
system.cpu0.dtb.stage2_mmu.stage2_tlb.flush_tlb_asid            0                       # Number of times TLB was flushed by ASID
system.cpu0.dtb.stage2_mmu.stage2_tlb.flush_tlb_mva            0                       # Number of times TLB was flushed by MVA
system.cpu0.dtb.stage2_mmu.stage2_tlb.flush_tlb_mva_asid            0                       # Number of times TLB was flushed by MVA & ASID
system.cpu0.dtb.stage2_mmu.stage2_tlb.hits            0                       # DTB hits
system.cpu0.dtb.stage2_mmu.stage2_tlb.inst_accesses            0                       # ITB inst accesses
system.cpu0.dtb.stage2_mmu.stage2_tlb.inst_hits            0                       # ITB inst hits
system.cpu0.dtb.stage2_mmu.stage2_tlb.inst_misses            0                       # ITB inst misses
system.cpu0.dtb.stage2_mmu.stage2_tlb.misses            0                       # DTB misses
system.cpu0.dtb.stage2_mmu.stage2_tlb.perms_faults            0                       # Number of TLB faults due to permissions restrictions
system.cpu0.dtb.stage2_mmu.stage2_tlb.prefetch_faults            0                       # Number of TLB faults due to prefetch
system.cpu0.dtb.stage2_mmu.stage2_tlb.read_accesses            0                       # DTB read accesses
system.cpu0.dtb.stage2_mmu.stage2_tlb.read_hits            0                       # DTB read hits
system.cpu0.dtb.stage2_mmu.stage2_tlb.read_misses            0                       # DTB read misses
system.cpu0.dtb.stage2_mmu.stage2_tlb.walker.walkRequestOrigin_Requested::Data            0                       # Table walker requests started/completed, data/inst
system.cpu0.dtb.stage2_mmu.stage2_tlb.walker.walkRequestOrigin_Requested::Inst            0                       # Table walker requests started/completed, data/inst
system.cpu0.dtb.stage2_mmu.stage2_tlb.walker.walkRequestOrigin_Requested::total            0                       # Table walker requests started/completed, data/inst
system.cpu0.dtb.stage2_mmu.stage2_tlb.walker.walkRequestOrigin_Completed::Data            0                       # Table walker requests started/completed, data/inst
system.cpu0.dtb.stage2_mmu.stage2_tlb.walker.walkRequestOrigin_Completed::Inst            0                       # Table walker requests started/completed, data/inst
system.cpu0.dtb.stage2_mmu.stage2_tlb.walker.walkRequestOrigin_Completed::total            0                       # Table walker requests started/completed, data/inst
system.cpu0.dtb.stage2_mmu.stage2_tlb.walker.walkRequestOrigin::total            0                       # Table walker requests started/completed, data/inst
system.cpu0.dtb.stage2_mmu.stage2_tlb.walker.walks            0                       # Table walker walks requested
system.cpu0.dtb.stage2_mmu.stage2_tlb.write_accesses            0                       # DTB write accesses
system.cpu0.dtb.stage2_mmu.stage2_tlb.write_hits            0                       # DTB write hits
system.cpu0.dtb.stage2_mmu.stage2_tlb.write_misses            0                       # DTB write misses
system.cpu0.dtb.walker.walkCompletionTime::samples            1                       # Table walker service (enqueue to completion) latency
system.cpu0.dtb.walker.walkCompletionTime::mean        27132                       # Table walker service (enqueue to completion) latency
system.cpu0.dtb.walker.walkCompletionTime::gmean 27132.000000                       # Table walker service (enqueue to completion) latency
system.cpu0.dtb.walker.walkCompletionTime::26624-28671            1    100.00%    100.00% # Table walker service (enqueue to completion) latency
system.cpu0.dtb.walker.walkCompletionTime::total            1                       # Table walker service (enqueue to completion) latency
system.cpu0.dtb.walker.walkPageSizes::4K            1    100.00%    100.00% # Table walker page sizes translated
system.cpu0.dtb.walker.walkPageSizes::total            1                       # Table walker page sizes translated
system.cpu0.dtb.walker.walkRequestOrigin_Requested::Data         1042                       # Table walker requests started/completed, data/inst
system.cpu0.dtb.walker.walkRequestOrigin_Requested::Inst            0                       # Table walker requests started/completed, data/inst
system.cpu0.dtb.walker.walkRequestOrigin_Requested::total         1042                       # Table walker requests started/completed, data/inst
system.cpu0.dtb.walker.walkRequestOrigin_Completed::Data            1                       # Table walker requests started/completed, data/inst
system.cpu0.dtb.walker.walkRequestOrigin_Completed::Inst            0                       # Table walker requests started/completed, data/inst
system.cpu0.dtb.walker.walkRequestOrigin_Completed::total            1                       # Table walker requests started/completed, data/inst
system.cpu0.dtb.walker.walkRequestOrigin::total         1043                       # Table walker requests started/completed, data/inst
system.cpu0.dtb.walker.walkWaitTime::samples         1042                       # Table walker wait (enqueue to first request) latency
system.cpu0.dtb.walker.walkWaitTime::0           1042    100.00%    100.00% # Table walker wait (enqueue to first request) latency
system.cpu0.dtb.walker.walkWaitTime::total         1042                       # Table walker wait (enqueue to first request) latency
system.cpu0.dtb.walker.walks                     1042                       # Table walker walks requested
system.cpu0.dtb.walker.walksLong                 1042                       # Table walker walks initiated with long descriptors
system.cpu0.dtb.walker.walksLongTerminationLevel::Level3            1                       # Level at which table walker walks with long descriptors terminate
system.cpu0.dtb.write_accesses                 111788                       # DTB write accesses
system.cpu0.dtb.write_hits                     111529                       # DTB write hits
system.cpu0.dtb.write_misses                      259                       # DTB write misses
system.cpu0.fetch2.amo_instructions                 0                       # Number of memory atomic instructions successfully decoded
system.cpu0.fetch2.fp_instructions                  0                       # Number of floating point instructions successfully decoded
system.cpu0.fetch2.int_instructions            521278                       # Number of integer instructions successfully decoded
system.cpu0.fetch2.load_instructions           135359                       # Number of memory load instructions successfully decoded
system.cpu0.fetch2.store_instructions           38963                       # Number of memory store instructions successfully decoded
system.cpu0.fetch2.vec_instructions                 0                       # Number of SIMD instructions successfully decoded
system.cpu0.idleCycles                         188114                       # Total number of cycles that the object has spent stopped
system.cpu0.ipc                              0.443491                       # IPC: instructions per cycle
system.cpu0.itb.accesses                       300198                       # DTB accesses
system.cpu0.itb.align_faults                        0                       # Number of TLB faults due to alignment restrictions
system.cpu0.itb.domain_faults                       0                       # Number of TLB faults due to domain restrictions
system.cpu0.itb.flush_entries                       0                       # Number of entries that have been flushed from TLB
system.cpu0.itb.flush_tlb                           0                       # Number of times complete TLB was flushed
system.cpu0.itb.flush_tlb_asid                      0                       # Number of times TLB was flushed by ASID
system.cpu0.itb.flush_tlb_mva                       0                       # Number of times TLB was flushed by MVA
system.cpu0.itb.flush_tlb_mva_asid                  0                       # Number of times TLB was flushed by MVA & ASID
system.cpu0.itb.hits                           300197                       # DTB hits
system.cpu0.itb.inst_accesses                  300198                       # ITB inst accesses
system.cpu0.itb.inst_hits                      300197                       # ITB inst hits
system.cpu0.itb.inst_misses                         1                       # ITB inst misses
system.cpu0.itb.misses                              1                       # DTB misses
system.cpu0.itb.perms_faults                        0                       # Number of TLB faults due to permissions restrictions
system.cpu0.itb.prefetch_faults                     0                       # Number of TLB faults due to prefetch
system.cpu0.itb.read_accesses                       0                       # DTB read accesses
system.cpu0.itb.read_hits                           0                       # DTB read hits
system.cpu0.itb.read_misses                         0                       # DTB read misses
system.cpu0.itb.stage2_mmu.stage2_tlb.accesses            0                       # DTB accesses
system.cpu0.itb.stage2_mmu.stage2_tlb.align_faults            0                       # Number of TLB faults due to alignment restrictions
system.cpu0.itb.stage2_mmu.stage2_tlb.domain_faults            0                       # Number of TLB faults due to domain restrictions
system.cpu0.itb.stage2_mmu.stage2_tlb.flush_entries            0                       # Number of entries that have been flushed from TLB
system.cpu0.itb.stage2_mmu.stage2_tlb.flush_tlb            0                       # Number of times complete TLB was flushed
system.cpu0.itb.stage2_mmu.stage2_tlb.flush_tlb_asid            0                       # Number of times TLB was flushed by ASID
system.cpu0.itb.stage2_mmu.stage2_tlb.flush_tlb_mva            0                       # Number of times TLB was flushed by MVA
system.cpu0.itb.stage2_mmu.stage2_tlb.flush_tlb_mva_asid            0                       # Number of times TLB was flushed by MVA & ASID
system.cpu0.itb.stage2_mmu.stage2_tlb.hits            0                       # DTB hits
system.cpu0.itb.stage2_mmu.stage2_tlb.inst_accesses            0                       # ITB inst accesses
system.cpu0.itb.stage2_mmu.stage2_tlb.inst_hits            0                       # ITB inst hits
system.cpu0.itb.stage2_mmu.stage2_tlb.inst_misses            0                       # ITB inst misses
system.cpu0.itb.stage2_mmu.stage2_tlb.misses            0                       # DTB misses
system.cpu0.itb.stage2_mmu.stage2_tlb.perms_faults            0                       # Number of TLB faults due to permissions restrictions
system.cpu0.itb.stage2_mmu.stage2_tlb.prefetch_faults            0                       # Number of TLB faults due to prefetch
system.cpu0.itb.stage2_mmu.stage2_tlb.read_accesses            0                       # DTB read accesses
system.cpu0.itb.stage2_mmu.stage2_tlb.read_hits            0                       # DTB read hits
system.cpu0.itb.stage2_mmu.stage2_tlb.read_misses            0                       # DTB read misses
system.cpu0.itb.stage2_mmu.stage2_tlb.walker.walkRequestOrigin_Requested::Data            0                       # Table walker requests started/completed, data/inst
system.cpu0.itb.stage2_mmu.stage2_tlb.walker.walkRequestOrigin_Requested::Inst            0                       # Table walker requests started/completed, data/inst
system.cpu0.itb.stage2_mmu.stage2_tlb.walker.walkRequestOrigin_Requested::total            0                       # Table walker requests started/completed, data/inst
system.cpu0.itb.stage2_mmu.stage2_tlb.walker.walkRequestOrigin_Completed::Data            0                       # Table walker requests started/completed, data/inst
system.cpu0.itb.stage2_mmu.stage2_tlb.walker.walkRequestOrigin_Completed::Inst            0                       # Table walker requests started/completed, data/inst
system.cpu0.itb.stage2_mmu.stage2_tlb.walker.walkRequestOrigin_Completed::total            0                       # Table walker requests started/completed, data/inst
system.cpu0.itb.stage2_mmu.stage2_tlb.walker.walkRequestOrigin::total            0                       # Table walker requests started/completed, data/inst
system.cpu0.itb.stage2_mmu.stage2_tlb.walker.walks            0                       # Table walker walks requested
system.cpu0.itb.stage2_mmu.stage2_tlb.write_accesses            0                       # DTB write accesses
system.cpu0.itb.stage2_mmu.stage2_tlb.write_hits            0                       # DTB write hits
system.cpu0.itb.stage2_mmu.stage2_tlb.write_misses            0                       # DTB write misses
system.cpu0.itb.walker.walkCompletionTime::samples            1                       # Table walker service (enqueue to completion) latency
system.cpu0.itb.walker.walkCompletionTime::mean        24276                       # Table walker service (enqueue to completion) latency
system.cpu0.itb.walker.walkCompletionTime::gmean 24276.000000                       # Table walker service (enqueue to completion) latency
system.cpu0.itb.walker.walkCompletionTime::22528-24575            1    100.00%    100.00% # Table walker service (enqueue to completion) latency
system.cpu0.itb.walker.walkCompletionTime::total            1                       # Table walker service (enqueue to completion) latency
system.cpu0.itb.walker.walkPageSizes::4K            1    100.00%    100.00% # Table walker page sizes translated
system.cpu0.itb.walker.walkPageSizes::total            1                       # Table walker page sizes translated
system.cpu0.itb.walker.walkRequestOrigin_Requested::Data            0                       # Table walker requests started/completed, data/inst
system.cpu0.itb.walker.walkRequestOrigin_Requested::Inst            1                       # Table walker requests started/completed, data/inst
system.cpu0.itb.walker.walkRequestOrigin_Requested::total            1                       # Table walker requests started/completed, data/inst
system.cpu0.itb.walker.walkRequestOrigin_Completed::Data            0                       # Table walker requests started/completed, data/inst
system.cpu0.itb.walker.walkRequestOrigin_Completed::Inst            1                       # Table walker requests started/completed, data/inst
system.cpu0.itb.walker.walkRequestOrigin_Completed::total            1                       # Table walker requests started/completed, data/inst
system.cpu0.itb.walker.walkRequestOrigin::total            2                       # Table walker requests started/completed, data/inst
system.cpu0.itb.walker.walkWaitTime::samples            1                       # Table walker wait (enqueue to first request) latency
system.cpu0.itb.walker.walkWaitTime::0              1    100.00%    100.00% # Table walker wait (enqueue to first request) latency
system.cpu0.itb.walker.walkWaitTime::total            1                       # Table walker wait (enqueue to first request) latency
system.cpu0.itb.walker.walks                        1                       # Table walker walks requested
system.cpu0.itb.walker.walksLong                    1                       # Table walker walks initiated with long descriptors
system.cpu0.itb.walker.walksLongTerminationLevel::Level3            1                       # Level at which table walker walks with long descriptors terminate
system.cpu0.itb.write_accesses                      0                       # DTB write accesses
system.cpu0.itb.write_hits                          0                       # DTB write hits
system.cpu0.itb.write_misses                        0                       # DTB write misses
system.cpu0.kern.inst.arm                           0                       # number of arm instructions executed
system.cpu0.kern.inst.quiesce                     107                       # number of quiesce instructions executed
system.cpu0.numCycles                         1074378                       # number of cpu cycles simulated
system.cpu0.numFetchSuspends                      107                       # Number of times Execute suspended instruction fetching
system.cpu0.numWorkItemsCompleted                   0                       # number of work items this cpu completed
system.cpu0.numWorkItemsStarted                     0                       # number of work items this cpu started
system.cpu0.op_class_0::No_OpClass                  0      0.00%      0.00% # Class of committed instruction
system.cpu0.op_class_0::IntAlu                 410357     64.65%     64.65% # Class of committed instruction
system.cpu0.op_class_0::IntMult                   429      0.07%     64.72% # Class of committed instruction
system.cpu0.op_class_0::IntDiv                     76      0.01%     64.73% # Class of committed instruction
system.cpu0.op_class_0::FloatAdd                    0      0.00%     64.73% # Class of committed instruction
system.cpu0.op_class_0::FloatCmp                    0      0.00%     64.73% # Class of committed instruction
system.cpu0.op_class_0::FloatCvt                    0      0.00%     64.73% # Class of committed instruction
system.cpu0.op_class_0::FloatMult                   0      0.00%     64.73% # Class of committed instruction
system.cpu0.op_class_0::FloatMultAcc                0      0.00%     64.73% # Class of committed instruction
system.cpu0.op_class_0::FloatDiv                    0      0.00%     64.73% # Class of committed instruction
system.cpu0.op_class_0::FloatMisc                   0      0.00%     64.73% # Class of committed instruction
system.cpu0.op_class_0::FloatSqrt                   0      0.00%     64.73% # Class of committed instruction
system.cpu0.op_class_0::SimdAdd                     0      0.00%     64.73% # Class of committed instruction
system.cpu0.op_class_0::SimdAddAcc                  0      0.00%     64.73% # Class of committed instruction
system.cpu0.op_class_0::SimdAlu                     0      0.00%     64.73% # Class of committed instruction
system.cpu0.op_class_0::SimdCmp                     0      0.00%     64.73% # Class of committed instruction
system.cpu0.op_class_0::SimdCvt                     0      0.00%     64.73% # Class of committed instruction
system.cpu0.op_class_0::SimdMisc                    0      0.00%     64.73% # Class of committed instruction
system.cpu0.op_class_0::SimdMult                    0      0.00%     64.73% # Class of committed instruction
system.cpu0.op_class_0::SimdMultAcc                 0      0.00%     64.73% # Class of committed instruction
system.cpu0.op_class_0::SimdShift                   0      0.00%     64.73% # Class of committed instruction
system.cpu0.op_class_0::SimdShiftAcc                0      0.00%     64.73% # Class of committed instruction
system.cpu0.op_class_0::SimdDiv                     0      0.00%     64.73% # Class of committed instruction
system.cpu0.op_class_0::SimdSqrt                    0      0.00%     64.73% # Class of committed instruction
system.cpu0.op_class_0::SimdFloatAdd                0      0.00%     64.73% # Class of committed instruction
system.cpu0.op_class_0::SimdFloatAlu                0      0.00%     64.73% # Class of committed instruction
system.cpu0.op_class_0::SimdFloatCmp                0      0.00%     64.73% # Class of committed instruction
system.cpu0.op_class_0::SimdFloatCvt                0      0.00%     64.73% # Class of committed instruction
system.cpu0.op_class_0::SimdFloatDiv                0      0.00%     64.73% # Class of committed instruction
system.cpu0.op_class_0::SimdFloatMisc               0      0.00%     64.73% # Class of committed instruction
system.cpu0.op_class_0::SimdFloatMult               0      0.00%     64.73% # Class of committed instruction
system.cpu0.op_class_0::SimdFloatMultAcc            0      0.00%     64.73% # Class of committed instruction
system.cpu0.op_class_0::SimdFloatSqrt               0      0.00%     64.73% # Class of committed instruction
system.cpu0.op_class_0::SimdReduceAdd               0      0.00%     64.73% # Class of committed instruction
system.cpu0.op_class_0::SimdReduceAlu               0      0.00%     64.73% # Class of committed instruction
system.cpu0.op_class_0::SimdReduceCmp               0      0.00%     64.73% # Class of committed instruction
system.cpu0.op_class_0::SimdFloatReduceAdd            0      0.00%     64.73% # Class of committed instruction
system.cpu0.op_class_0::SimdFloatReduceCmp            0      0.00%     64.73% # Class of committed instruction
system.cpu0.op_class_0::SimdAes                     0      0.00%     64.73% # Class of committed instruction
system.cpu0.op_class_0::SimdAesMix                  0      0.00%     64.73% # Class of committed instruction
system.cpu0.op_class_0::SimdSha1Hash                0      0.00%     64.73% # Class of committed instruction
system.cpu0.op_class_0::SimdSha1Hash2               0      0.00%     64.73% # Class of committed instruction
system.cpu0.op_class_0::SimdSha256Hash              0      0.00%     64.73% # Class of committed instruction
system.cpu0.op_class_0::SimdSha256Hash2             0      0.00%     64.73% # Class of committed instruction
system.cpu0.op_class_0::SimdShaSigma2               0      0.00%     64.73% # Class of committed instruction
system.cpu0.op_class_0::SimdShaSigma3               0      0.00%     64.73% # Class of committed instruction
system.cpu0.op_class_0::SimdPredAlu                 0      0.00%     64.73% # Class of committed instruction
system.cpu0.op_class_0::MemRead                113667     17.91%     82.64% # Class of committed instruction
system.cpu0.op_class_0::MemWrite               110176     17.36%    100.00% # Class of committed instruction
system.cpu0.op_class_0::FloatMemRead                0      0.00%    100.00% # Class of committed instruction
system.cpu0.op_class_0::FloatMemWrite               0      0.00%    100.00% # Class of committed instruction
system.cpu0.op_class_0::IprAccess                   0      0.00%    100.00% # Class of committed instruction
system.cpu0.op_class_0::InstPrefetch                0      0.00%    100.00% # Class of committed instruction
system.cpu0.op_class_0::total                  634705                       # Class of committed instruction
system.cpu0.quiesceCycles                    64429163                       # Total number of cycles that CPU has spent quiesced or waiting for an interrupt
system.cpu0.tickCycles                         886264                       # Number of cycles that the object actually ticked
system.cpu1.branchPred.BTBCorrect                   0                       # Number of correct BTB predictions (this stat may not work properly.
system.cpu1.branchPred.BTBHitPct            17.178483                       # BTB Hit Percentage
system.cpu1.branchPred.BTBHits                   7591                       # Number of BTB hits
system.cpu1.branchPred.BTBLookups               44189                       # Number of BTB lookups
system.cpu1.branchPred.RASInCorrect               841                       # Number of incorrect RAS predictions.
system.cpu1.branchPred.condIncorrect             8514                       # Number of conditional branches incorrect
system.cpu1.branchPred.condPredicted            27882                       # Number of conditional branches predicted
system.cpu1.branchPred.indirectHits               607                       # Number of indirect target hits.
system.cpu1.branchPred.indirectLookups            960                       # Number of indirect predictor lookups.
system.cpu1.branchPred.indirectMisses             353                       # Number of indirect misses.
system.cpu1.branchPred.lookups                  57867                       # Number of BP lookups
system.cpu1.branchPred.usedRAS                  12430                       # Number of times the RAS was used to get a target.
system.cpu1.branchPredindirectMispredicted          123                       # Number of mispredicted indirect branches.
system.cpu1.committedInsts                     135677                       # Number of instructions committed
system.cpu1.committedOps                       172518                       # Number of ops (including micro ops) committed
system.cpu1.cpi                              1.807587                       # CPI: cycles per instruction
system.cpu1.dcache.prefetcher.num_hwpf_issued           10                       # number of hwpf issued
system.cpu1.dcache.prefetcher.pfBufferHit            0                       # number of redundant prefetches already in prefetch queue
system.cpu1.dcache.prefetcher.pfIdentified           10                       # number of prefetch candidates identified
system.cpu1.dcache.prefetcher.pfInCache             0                       # number of redundant prefetches already in cache/mshr dropped
system.cpu1.dcache.prefetcher.pfRemovedFull            0                       # number of prefetches dropped due to prefetch queue size
system.cpu1.dcache.prefetcher.pfSpanPage           10                       # number of prefetches that crossed the page
system.cpu1.discardedOps                        27209                       # Number of ops (including micro ops) which were discarded before commit
system.cpu1.dtb.accesses                        66289                       # DTB accesses
system.cpu1.dtb.align_faults                        0                       # Number of TLB faults due to alignment restrictions
system.cpu1.dtb.domain_faults                       0                       # Number of TLB faults due to domain restrictions
system.cpu1.dtb.flush_entries                       0                       # Number of entries that have been flushed from TLB
system.cpu1.dtb.flush_tlb                           0                       # Number of times complete TLB was flushed
system.cpu1.dtb.flush_tlb_asid                      0                       # Number of times TLB was flushed by ASID
system.cpu1.dtb.flush_tlb_mva                       0                       # Number of times TLB was flushed by MVA
system.cpu1.dtb.flush_tlb_mva_asid                  0                       # Number of times TLB was flushed by MVA & ASID
system.cpu1.dtb.hits                            65881                       # DTB hits
system.cpu1.dtb.inst_accesses                       0                       # ITB inst accesses
system.cpu1.dtb.inst_hits                           0                       # ITB inst hits
system.cpu1.dtb.inst_misses                         0                       # ITB inst misses
system.cpu1.dtb.misses                            408                       # DTB misses
system.cpu1.dtb.perms_faults                        9                       # Number of TLB faults due to permissions restrictions
system.cpu1.dtb.prefetch_faults                    10                       # Number of TLB faults due to prefetch
system.cpu1.dtb.read_accesses                   36985                       # DTB read accesses
system.cpu1.dtb.read_hits                       36637                       # DTB read hits
system.cpu1.dtb.read_misses                       348                       # DTB read misses
system.cpu1.dtb.stage2_mmu.stage2_tlb.accesses            0                       # DTB accesses
system.cpu1.dtb.stage2_mmu.stage2_tlb.align_faults            0                       # Number of TLB faults due to alignment restrictions
system.cpu1.dtb.stage2_mmu.stage2_tlb.domain_faults            0                       # Number of TLB faults due to domain restrictions
system.cpu1.dtb.stage2_mmu.stage2_tlb.flush_entries            0                       # Number of entries that have been flushed from TLB
system.cpu1.dtb.stage2_mmu.stage2_tlb.flush_tlb            0                       # Number of times complete TLB was flushed
system.cpu1.dtb.stage2_mmu.stage2_tlb.flush_tlb_asid            0                       # Number of times TLB was flushed by ASID
system.cpu1.dtb.stage2_mmu.stage2_tlb.flush_tlb_mva            0                       # Number of times TLB was flushed by MVA
system.cpu1.dtb.stage2_mmu.stage2_tlb.flush_tlb_mva_asid            0                       # Number of times TLB was flushed by MVA & ASID
system.cpu1.dtb.stage2_mmu.stage2_tlb.hits            0                       # DTB hits
system.cpu1.dtb.stage2_mmu.stage2_tlb.inst_accesses            0                       # ITB inst accesses
system.cpu1.dtb.stage2_mmu.stage2_tlb.inst_hits            0                       # ITB inst hits
system.cpu1.dtb.stage2_mmu.stage2_tlb.inst_misses            0                       # ITB inst misses
system.cpu1.dtb.stage2_mmu.stage2_tlb.misses            0                       # DTB misses
system.cpu1.dtb.stage2_mmu.stage2_tlb.perms_faults            0                       # Number of TLB faults due to permissions restrictions
system.cpu1.dtb.stage2_mmu.stage2_tlb.prefetch_faults            0                       # Number of TLB faults due to prefetch
system.cpu1.dtb.stage2_mmu.stage2_tlb.read_accesses            0                       # DTB read accesses
system.cpu1.dtb.stage2_mmu.stage2_tlb.read_hits            0                       # DTB read hits
system.cpu1.dtb.stage2_mmu.stage2_tlb.read_misses            0                       # DTB read misses
system.cpu1.dtb.stage2_mmu.stage2_tlb.walker.walkRequestOrigin_Requested::Data            0                       # Table walker requests started/completed, data/inst
system.cpu1.dtb.stage2_mmu.stage2_tlb.walker.walkRequestOrigin_Requested::Inst            0                       # Table walker requests started/completed, data/inst
system.cpu1.dtb.stage2_mmu.stage2_tlb.walker.walkRequestOrigin_Requested::total            0                       # Table walker requests started/completed, data/inst
system.cpu1.dtb.stage2_mmu.stage2_tlb.walker.walkRequestOrigin_Completed::Data            0                       # Table walker requests started/completed, data/inst
system.cpu1.dtb.stage2_mmu.stage2_tlb.walker.walkRequestOrigin_Completed::Inst            0                       # Table walker requests started/completed, data/inst
system.cpu1.dtb.stage2_mmu.stage2_tlb.walker.walkRequestOrigin_Completed::total            0                       # Table walker requests started/completed, data/inst
system.cpu1.dtb.stage2_mmu.stage2_tlb.walker.walkRequestOrigin::total            0                       # Table walker requests started/completed, data/inst
system.cpu1.dtb.stage2_mmu.stage2_tlb.walker.walks            0                       # Table walker walks requested
system.cpu1.dtb.stage2_mmu.stage2_tlb.write_accesses            0                       # DTB write accesses
system.cpu1.dtb.stage2_mmu.stage2_tlb.write_hits            0                       # DTB write hits
system.cpu1.dtb.stage2_mmu.stage2_tlb.write_misses            0                       # DTB write misses
system.cpu1.dtb.walker.walkCompletionTime::samples            3                       # Table walker service (enqueue to completion) latency
system.cpu1.dtb.walker.walkCompletionTime::mean        20706                       # Table walker service (enqueue to completion) latency
system.cpu1.dtb.walker.walkCompletionTime::gmean 19178.566203                       # Table walker service (enqueue to completion) latency
system.cpu1.dtb.walker.walkCompletionTime::stdev  8773.778889                       # Table walker service (enqueue to completion) latency
system.cpu1.dtb.walker.walkCompletionTime::10240-12287            1     33.33%     33.33% # Table walker service (enqueue to completion) latency
system.cpu1.dtb.walker.walkCompletionTime::22528-24575            1     33.33%     66.67% # Table walker service (enqueue to completion) latency
system.cpu1.dtb.walker.walkCompletionTime::26624-28671            1     33.33%    100.00% # Table walker service (enqueue to completion) latency
system.cpu1.dtb.walker.walkCompletionTime::total            3                       # Table walker service (enqueue to completion) latency
system.cpu1.dtb.walker.walkPageSizes::4K            3    100.00%    100.00% # Table walker page sizes translated
system.cpu1.dtb.walker.walkPageSizes::total            3                       # Table walker page sizes translated
system.cpu1.dtb.walker.walkRequestOrigin_Requested::Data          408                       # Table walker requests started/completed, data/inst
system.cpu1.dtb.walker.walkRequestOrigin_Requested::Inst            0                       # Table walker requests started/completed, data/inst
system.cpu1.dtb.walker.walkRequestOrigin_Requested::total          408                       # Table walker requests started/completed, data/inst
system.cpu1.dtb.walker.walkRequestOrigin_Completed::Data            3                       # Table walker requests started/completed, data/inst
system.cpu1.dtb.walker.walkRequestOrigin_Completed::Inst            0                       # Table walker requests started/completed, data/inst
system.cpu1.dtb.walker.walkRequestOrigin_Completed::total            3                       # Table walker requests started/completed, data/inst
system.cpu1.dtb.walker.walkRequestOrigin::total          411                       # Table walker requests started/completed, data/inst
system.cpu1.dtb.walker.walkWaitTime::samples          408                       # Table walker wait (enqueue to first request) latency
system.cpu1.dtb.walker.walkWaitTime::0            408    100.00%    100.00% # Table walker wait (enqueue to first request) latency
system.cpu1.dtb.walker.walkWaitTime::total          408                       # Table walker wait (enqueue to first request) latency
system.cpu1.dtb.walker.walks                      408                       # Table walker walks requested
system.cpu1.dtb.walker.walksLong                  408                       # Table walker walks initiated with long descriptors
system.cpu1.dtb.walker.walksLongTerminationLevel::Level3            3                       # Level at which table walker walks with long descriptors terminate
system.cpu1.dtb.write_accesses                  29304                       # DTB write accesses
system.cpu1.dtb.write_hits                      29244                       # DTB write hits
system.cpu1.dtb.write_misses                       60                       # DTB write misses
system.cpu1.fetch2.amo_instructions                 0                       # Number of memory atomic instructions successfully decoded
system.cpu1.fetch2.fp_instructions                  0                       # Number of floating point instructions successfully decoded
system.cpu1.fetch2.int_instructions            147646                       # Number of integer instructions successfully decoded
system.cpu1.fetch2.load_instructions            43551                       # Number of memory load instructions successfully decoded
system.cpu1.fetch2.store_instructions           14326                       # Number of memory store instructions successfully decoded
system.cpu1.fetch2.vec_instructions                 0                       # Number of SIMD instructions successfully decoded
system.cpu1.idleCycles                           3658                       # Total number of cycles that the object has spent stopped
system.cpu1.ipc                              0.553224                       # IPC: instructions per cycle
system.cpu1.itb.accesses                        79978                       # DTB accesses
system.cpu1.itb.align_faults                        0                       # Number of TLB faults due to alignment restrictions
system.cpu1.itb.domain_faults                       0                       # Number of TLB faults due to domain restrictions
system.cpu1.itb.flush_entries                       0                       # Number of entries that have been flushed from TLB
system.cpu1.itb.flush_tlb                           0                       # Number of times complete TLB was flushed
system.cpu1.itb.flush_tlb_asid                      0                       # Number of times TLB was flushed by ASID
system.cpu1.itb.flush_tlb_mva                       0                       # Number of times TLB was flushed by MVA
system.cpu1.itb.flush_tlb_mva_asid                  0                       # Number of times TLB was flushed by MVA & ASID
system.cpu1.itb.hits                            79973                       # DTB hits
system.cpu1.itb.inst_accesses                   79978                       # ITB inst accesses
system.cpu1.itb.inst_hits                       79973                       # ITB inst hits
system.cpu1.itb.inst_misses                         5                       # ITB inst misses
system.cpu1.itb.misses                              5                       # DTB misses
system.cpu1.itb.perms_faults                        0                       # Number of TLB faults due to permissions restrictions
system.cpu1.itb.prefetch_faults                     0                       # Number of TLB faults due to prefetch
system.cpu1.itb.read_accesses                       0                       # DTB read accesses
system.cpu1.itb.read_hits                           0                       # DTB read hits
system.cpu1.itb.read_misses                         0                       # DTB read misses
system.cpu1.itb.stage2_mmu.stage2_tlb.accesses            0                       # DTB accesses
system.cpu1.itb.stage2_mmu.stage2_tlb.align_faults            0                       # Number of TLB faults due to alignment restrictions
system.cpu1.itb.stage2_mmu.stage2_tlb.domain_faults            0                       # Number of TLB faults due to domain restrictions
system.cpu1.itb.stage2_mmu.stage2_tlb.flush_entries            0                       # Number of entries that have been flushed from TLB
system.cpu1.itb.stage2_mmu.stage2_tlb.flush_tlb            0                       # Number of times complete TLB was flushed
system.cpu1.itb.stage2_mmu.stage2_tlb.flush_tlb_asid            0                       # Number of times TLB was flushed by ASID
system.cpu1.itb.stage2_mmu.stage2_tlb.flush_tlb_mva            0                       # Number of times TLB was flushed by MVA
system.cpu1.itb.stage2_mmu.stage2_tlb.flush_tlb_mva_asid            0                       # Number of times TLB was flushed by MVA & ASID
system.cpu1.itb.stage2_mmu.stage2_tlb.hits            0                       # DTB hits
system.cpu1.itb.stage2_mmu.stage2_tlb.inst_accesses            0                       # ITB inst accesses
system.cpu1.itb.stage2_mmu.stage2_tlb.inst_hits            0                       # ITB inst hits
system.cpu1.itb.stage2_mmu.stage2_tlb.inst_misses            0                       # ITB inst misses
system.cpu1.itb.stage2_mmu.stage2_tlb.misses            0                       # DTB misses
system.cpu1.itb.stage2_mmu.stage2_tlb.perms_faults            0                       # Number of TLB faults due to permissions restrictions
system.cpu1.itb.stage2_mmu.stage2_tlb.prefetch_faults            0                       # Number of TLB faults due to prefetch
system.cpu1.itb.stage2_mmu.stage2_tlb.read_accesses            0                       # DTB read accesses
system.cpu1.itb.stage2_mmu.stage2_tlb.read_hits            0                       # DTB read hits
system.cpu1.itb.stage2_mmu.stage2_tlb.read_misses            0                       # DTB read misses
system.cpu1.itb.stage2_mmu.stage2_tlb.walker.walkRequestOrigin_Requested::Data            0                       # Table walker requests started/completed, data/inst
system.cpu1.itb.stage2_mmu.stage2_tlb.walker.walkRequestOrigin_Requested::Inst            0                       # Table walker requests started/completed, data/inst
system.cpu1.itb.stage2_mmu.stage2_tlb.walker.walkRequestOrigin_Requested::total            0                       # Table walker requests started/completed, data/inst
system.cpu1.itb.stage2_mmu.stage2_tlb.walker.walkRequestOrigin_Completed::Data            0                       # Table walker requests started/completed, data/inst
system.cpu1.itb.stage2_mmu.stage2_tlb.walker.walkRequestOrigin_Completed::Inst            0                       # Table walker requests started/completed, data/inst
system.cpu1.itb.stage2_mmu.stage2_tlb.walker.walkRequestOrigin_Completed::total            0                       # Table walker requests started/completed, data/inst
system.cpu1.itb.stage2_mmu.stage2_tlb.walker.walkRequestOrigin::total            0                       # Table walker requests started/completed, data/inst
system.cpu1.itb.stage2_mmu.stage2_tlb.walker.walks            0                       # Table walker walks requested
system.cpu1.itb.stage2_mmu.stage2_tlb.write_accesses            0                       # DTB write accesses
system.cpu1.itb.stage2_mmu.stage2_tlb.write_hits            0                       # DTB write hits
system.cpu1.itb.stage2_mmu.stage2_tlb.write_misses            0                       # DTB write misses
system.cpu1.itb.walker.walkCompletionTime::samples            5                       # Table walker service (enqueue to completion) latency
system.cpu1.itb.walker.walkCompletionTime::mean 16707.600000                       # Table walker service (enqueue to completion) latency
system.cpu1.itb.walker.walkCompletionTime::gmean 15191.668322                       # Table walker service (enqueue to completion) latency
system.cpu1.itb.walker.walkCompletionTime::stdev  8274.394407                       # Table walker service (enqueue to completion) latency
system.cpu1.itb.walker.walkCompletionTime::10240-12287            3     60.00%     60.00% # Table walker service (enqueue to completion) latency
system.cpu1.itb.walker.walkCompletionTime::22528-24575            1     20.00%     80.00% # Table walker service (enqueue to completion) latency
system.cpu1.itb.walker.walkCompletionTime::26624-28671            1     20.00%    100.00% # Table walker service (enqueue to completion) latency
system.cpu1.itb.walker.walkCompletionTime::total            5                       # Table walker service (enqueue to completion) latency
system.cpu1.itb.walker.walkPageSizes::4K            5    100.00%    100.00% # Table walker page sizes translated
system.cpu1.itb.walker.walkPageSizes::total            5                       # Table walker page sizes translated
system.cpu1.itb.walker.walkRequestOrigin_Requested::Data            0                       # Table walker requests started/completed, data/inst
system.cpu1.itb.walker.walkRequestOrigin_Requested::Inst            5                       # Table walker requests started/completed, data/inst
system.cpu1.itb.walker.walkRequestOrigin_Requested::total            5                       # Table walker requests started/completed, data/inst
system.cpu1.itb.walker.walkRequestOrigin_Completed::Data            0                       # Table walker requests started/completed, data/inst
system.cpu1.itb.walker.walkRequestOrigin_Completed::Inst            5                       # Table walker requests started/completed, data/inst
system.cpu1.itb.walker.walkRequestOrigin_Completed::total            5                       # Table walker requests started/completed, data/inst
system.cpu1.itb.walker.walkRequestOrigin::total           10                       # Table walker requests started/completed, data/inst
system.cpu1.itb.walker.walkWaitTime::samples            5                       # Table walker wait (enqueue to first request) latency
system.cpu1.itb.walker.walkWaitTime::0              5    100.00%    100.00% # Table walker wait (enqueue to first request) latency
system.cpu1.itb.walker.walkWaitTime::total            5                       # Table walker wait (enqueue to first request) latency
system.cpu1.itb.walker.walks                        5                       # Table walker walks requested
system.cpu1.itb.walker.walksLong                    5                       # Table walker walks initiated with long descriptors
system.cpu1.itb.walker.walksLongTerminationLevel::Level3            5                       # Level at which table walker walks with long descriptors terminate
system.cpu1.itb.write_accesses                      0                       # DTB write accesses
system.cpu1.itb.write_hits                          0                       # DTB write hits
system.cpu1.itb.write_misses                        0                       # DTB write misses
system.cpu1.kern.inst.arm                           0                       # number of arm instructions executed
system.cpu1.kern.inst.quiesce                      13                       # number of quiesce instructions executed
system.cpu1.numCycles                          245248                       # number of cpu cycles simulated
system.cpu1.numFetchSuspends                       13                       # Number of times Execute suspended instruction fetching
system.cpu1.numWorkItemsCompleted                   0                       # number of work items this cpu completed
system.cpu1.numWorkItemsStarted                     0                       # number of work items this cpu started
system.cpu1.op_class_0::No_OpClass                  0      0.00%      0.00% # Class of committed instruction
system.cpu1.op_class_0::IntAlu                 111451     64.60%     64.60% # Class of committed instruction
system.cpu1.op_class_0::IntMult                   344      0.20%     64.80% # Class of committed instruction
system.cpu1.op_class_0::IntDiv                    120      0.07%     64.87% # Class of committed instruction
system.cpu1.op_class_0::FloatAdd                    0      0.00%     64.87% # Class of committed instruction
system.cpu1.op_class_0::FloatCmp                    0      0.00%     64.87% # Class of committed instruction
system.cpu1.op_class_0::FloatCvt                    0      0.00%     64.87% # Class of committed instruction
system.cpu1.op_class_0::FloatMult                   0      0.00%     64.87% # Class of committed instruction
system.cpu1.op_class_0::FloatMultAcc                0      0.00%     64.87% # Class of committed instruction
system.cpu1.op_class_0::FloatDiv                    0      0.00%     64.87% # Class of committed instruction
system.cpu1.op_class_0::FloatMisc                   0      0.00%     64.87% # Class of committed instruction
system.cpu1.op_class_0::FloatSqrt                   0      0.00%     64.87% # Class of committed instruction
system.cpu1.op_class_0::SimdAdd                     0      0.00%     64.87% # Class of committed instruction
system.cpu1.op_class_0::SimdAddAcc                  0      0.00%     64.87% # Class of committed instruction
system.cpu1.op_class_0::SimdAlu                     0      0.00%     64.87% # Class of committed instruction
system.cpu1.op_class_0::SimdCmp                     0      0.00%     64.87% # Class of committed instruction
system.cpu1.op_class_0::SimdCvt                     0      0.00%     64.87% # Class of committed instruction
system.cpu1.op_class_0::SimdMisc                    0      0.00%     64.87% # Class of committed instruction
system.cpu1.op_class_0::SimdMult                    0      0.00%     64.87% # Class of committed instruction
system.cpu1.op_class_0::SimdMultAcc                 0      0.00%     64.87% # Class of committed instruction
system.cpu1.op_class_0::SimdShift                   0      0.00%     64.87% # Class of committed instruction
system.cpu1.op_class_0::SimdShiftAcc                0      0.00%     64.87% # Class of committed instruction
system.cpu1.op_class_0::SimdDiv                     0      0.00%     64.87% # Class of committed instruction
system.cpu1.op_class_0::SimdSqrt                    0      0.00%     64.87% # Class of committed instruction
system.cpu1.op_class_0::SimdFloatAdd                0      0.00%     64.87% # Class of committed instruction
system.cpu1.op_class_0::SimdFloatAlu                0      0.00%     64.87% # Class of committed instruction
system.cpu1.op_class_0::SimdFloatCmp                0      0.00%     64.87% # Class of committed instruction
system.cpu1.op_class_0::SimdFloatCvt                0      0.00%     64.87% # Class of committed instruction
system.cpu1.op_class_0::SimdFloatDiv                0      0.00%     64.87% # Class of committed instruction
system.cpu1.op_class_0::SimdFloatMisc               0      0.00%     64.87% # Class of committed instruction
system.cpu1.op_class_0::SimdFloatMult               0      0.00%     64.87% # Class of committed instruction
system.cpu1.op_class_0::SimdFloatMultAcc            0      0.00%     64.87% # Class of committed instruction
system.cpu1.op_class_0::SimdFloatSqrt               0      0.00%     64.87% # Class of committed instruction
system.cpu1.op_class_0::SimdReduceAdd               0      0.00%     64.87% # Class of committed instruction
system.cpu1.op_class_0::SimdReduceAlu               0      0.00%     64.87% # Class of committed instruction
system.cpu1.op_class_0::SimdReduceCmp               0      0.00%     64.87% # Class of committed instruction
system.cpu1.op_class_0::SimdFloatReduceAdd            0      0.00%     64.87% # Class of committed instruction
system.cpu1.op_class_0::SimdFloatReduceCmp            0      0.00%     64.87% # Class of committed instruction
system.cpu1.op_class_0::SimdAes                     0      0.00%     64.87% # Class of committed instruction
system.cpu1.op_class_0::SimdAesMix                  0      0.00%     64.87% # Class of committed instruction
system.cpu1.op_class_0::SimdSha1Hash                0      0.00%     64.87% # Class of committed instruction
system.cpu1.op_class_0::SimdSha1Hash2               0      0.00%     64.87% # Class of committed instruction
system.cpu1.op_class_0::SimdSha256Hash              0      0.00%     64.87% # Class of committed instruction
system.cpu1.op_class_0::SimdSha256Hash2             0      0.00%     64.87% # Class of committed instruction
system.cpu1.op_class_0::SimdShaSigma2               0      0.00%     64.87% # Class of committed instruction
system.cpu1.op_class_0::SimdShaSigma3               0      0.00%     64.87% # Class of committed instruction
system.cpu1.op_class_0::SimdPredAlu                 0      0.00%     64.87% # Class of committed instruction
system.cpu1.op_class_0::MemRead                 31794     18.43%     83.30% # Class of committed instruction
system.cpu1.op_class_0::MemWrite                28809     16.70%    100.00% # Class of committed instruction
system.cpu1.op_class_0::FloatMemRead                0      0.00%    100.00% # Class of committed instruction
system.cpu1.op_class_0::FloatMemWrite               0      0.00%    100.00% # Class of committed instruction
system.cpu1.op_class_0::IprAccess                   0      0.00%    100.00% # Class of committed instruction
system.cpu1.op_class_0::InstPrefetch                0      0.00%    100.00% # Class of committed instruction
system.cpu1.op_class_0::total                  172518                       # Class of committed instruction
system.cpu1.quiesceCycles                    50180068                       # Total number of cycles that CPU has spent quiesced or waiting for an interrupt
system.cpu1.tickCycles                         241590                       # Number of cycles that the object actually ticked
system.cpu2.branchPred.BTBCorrect                   0                       # Number of correct BTB predictions (this stat may not work properly.
system.cpu2.branchPred.BTBHitPct            28.037045                       # BTB Hit Percentage
system.cpu2.branchPred.BTBHits                1949815                       # Number of BTB hits
system.cpu2.branchPred.BTBLookups             6954424                       # Number of BTB lookups
system.cpu2.branchPred.RASInCorrect             48349                       # Number of incorrect RAS predictions.
system.cpu2.branchPred.condIncorrect          1051194                       # Number of conditional branches incorrect
system.cpu2.branchPred.condPredicted          5019845                       # Number of conditional branches predicted
system.cpu2.branchPred.indirectHits             27917                       # Number of indirect target hits.
system.cpu2.branchPred.indirectLookups          39751                       # Number of indirect predictor lookups.
system.cpu2.branchPred.indirectMisses           11834                       # Number of indirect misses.
system.cpu2.branchPred.lookups                8576989                       # Number of BP lookups
system.cpu2.branchPred.usedRAS                1393167                       # Number of times the RAS was used to get a target.
system.cpu2.branchPredindirectMispredicted         1912                       # Number of mispredicted indirect branches.
system.cpu2.committedInsts                   24268824                       # Number of instructions committed
system.cpu2.committedOps                     30037658                       # Number of ops (including micro ops) committed
system.cpu2.cpi                              2.783414                       # CPI: cycles per instruction
system.cpu2.dcache.prefetcher.num_hwpf_issued          450                       # number of hwpf issued
system.cpu2.dcache.prefetcher.pfBufferHit          540                       # number of redundant prefetches already in prefetch queue
system.cpu2.dcache.prefetcher.pfIdentified         1675                       # number of prefetch candidates identified
system.cpu2.dcache.prefetcher.pfInCache             0                       # number of redundant prefetches already in cache/mshr dropped
system.cpu2.dcache.prefetcher.pfRemovedFull          117                       # number of prefetches dropped due to prefetch queue size
system.cpu2.dcache.prefetcher.pfSpanPage           85                       # number of prefetches that crossed the page
system.cpu2.discardedOps                      6178937                       # Number of ops (including micro ops) which were discarded before commit
system.cpu2.dtb.accesses                      7773602                       # DTB accesses
system.cpu2.dtb.align_faults                        0                       # Number of TLB faults due to alignment restrictions
system.cpu2.dtb.domain_faults                       0                       # Number of TLB faults due to domain restrictions
system.cpu2.dtb.flush_entries                       0                       # Number of entries that have been flushed from TLB
system.cpu2.dtb.flush_tlb                           0                       # Number of times complete TLB was flushed
system.cpu2.dtb.flush_tlb_asid                      0                       # Number of times TLB was flushed by ASID
system.cpu2.dtb.flush_tlb_mva                       0                       # Number of times TLB was flushed by MVA
system.cpu2.dtb.flush_tlb_mva_asid                  0                       # Number of times TLB was flushed by MVA & ASID
system.cpu2.dtb.hits                          7758828                       # DTB hits
system.cpu2.dtb.inst_accesses                       0                       # ITB inst accesses
system.cpu2.dtb.inst_hits                           0                       # ITB inst hits
system.cpu2.dtb.inst_misses                         0                       # ITB inst misses
system.cpu2.dtb.misses                          14774                       # DTB misses
system.cpu2.dtb.perms_faults                      192                       # Number of TLB faults due to permissions restrictions
system.cpu2.dtb.prefetch_faults                   104                       # Number of TLB faults due to prefetch
system.cpu2.dtb.read_accesses                 3962272                       # DTB read accesses
system.cpu2.dtb.read_hits                     3949113                       # DTB read hits
system.cpu2.dtb.read_misses                     13159                       # DTB read misses
system.cpu2.dtb.stage2_mmu.stage2_tlb.accesses            0                       # DTB accesses
system.cpu2.dtb.stage2_mmu.stage2_tlb.align_faults            0                       # Number of TLB faults due to alignment restrictions
system.cpu2.dtb.stage2_mmu.stage2_tlb.domain_faults            0                       # Number of TLB faults due to domain restrictions
system.cpu2.dtb.stage2_mmu.stage2_tlb.flush_entries            0                       # Number of entries that have been flushed from TLB
system.cpu2.dtb.stage2_mmu.stage2_tlb.flush_tlb            0                       # Number of times complete TLB was flushed
system.cpu2.dtb.stage2_mmu.stage2_tlb.flush_tlb_asid            0                       # Number of times TLB was flushed by ASID
system.cpu2.dtb.stage2_mmu.stage2_tlb.flush_tlb_mva            0                       # Number of times TLB was flushed by MVA
system.cpu2.dtb.stage2_mmu.stage2_tlb.flush_tlb_mva_asid            0                       # Number of times TLB was flushed by MVA & ASID
system.cpu2.dtb.stage2_mmu.stage2_tlb.hits            0                       # DTB hits
system.cpu2.dtb.stage2_mmu.stage2_tlb.inst_accesses            0                       # ITB inst accesses
system.cpu2.dtb.stage2_mmu.stage2_tlb.inst_hits            0                       # ITB inst hits
system.cpu2.dtb.stage2_mmu.stage2_tlb.inst_misses            0                       # ITB inst misses
system.cpu2.dtb.stage2_mmu.stage2_tlb.misses            0                       # DTB misses
system.cpu2.dtb.stage2_mmu.stage2_tlb.perms_faults            0                       # Number of TLB faults due to permissions restrictions
system.cpu2.dtb.stage2_mmu.stage2_tlb.prefetch_faults            0                       # Number of TLB faults due to prefetch
system.cpu2.dtb.stage2_mmu.stage2_tlb.read_accesses            0                       # DTB read accesses
system.cpu2.dtb.stage2_mmu.stage2_tlb.read_hits            0                       # DTB read hits
system.cpu2.dtb.stage2_mmu.stage2_tlb.read_misses            0                       # DTB read misses
system.cpu2.dtb.stage2_mmu.stage2_tlb.walker.walkRequestOrigin_Requested::Data            0                       # Table walker requests started/completed, data/inst
system.cpu2.dtb.stage2_mmu.stage2_tlb.walker.walkRequestOrigin_Requested::Inst            0                       # Table walker requests started/completed, data/inst
system.cpu2.dtb.stage2_mmu.stage2_tlb.walker.walkRequestOrigin_Requested::total            0                       # Table walker requests started/completed, data/inst
system.cpu2.dtb.stage2_mmu.stage2_tlb.walker.walkRequestOrigin_Completed::Data            0                       # Table walker requests started/completed, data/inst
system.cpu2.dtb.stage2_mmu.stage2_tlb.walker.walkRequestOrigin_Completed::Inst            0                       # Table walker requests started/completed, data/inst
system.cpu2.dtb.stage2_mmu.stage2_tlb.walker.walkRequestOrigin_Completed::total            0                       # Table walker requests started/completed, data/inst
system.cpu2.dtb.stage2_mmu.stage2_tlb.walker.walkRequestOrigin::total            0                       # Table walker requests started/completed, data/inst
system.cpu2.dtb.stage2_mmu.stage2_tlb.walker.walks            0                       # Table walker walks requested
system.cpu2.dtb.stage2_mmu.stage2_tlb.write_accesses            0                       # DTB write accesses
system.cpu2.dtb.stage2_mmu.stage2_tlb.write_hits            0                       # DTB write hits
system.cpu2.dtb.stage2_mmu.stage2_tlb.write_misses            0                       # DTB write misses
system.cpu2.dtb.walker.walkCompletionTime::samples          917                       # Table walker service (enqueue to completion) latency
system.cpu2.dtb.walker.walkCompletionTime::mean 13704.595420                       # Table walker service (enqueue to completion) latency
system.cpu2.dtb.walker.walkCompletionTime::gmean 13180.625712                       # Table walker service (enqueue to completion) latency
system.cpu2.dtb.walker.walkCompletionTime::stdev  5177.048195                       # Table walker service (enqueue to completion) latency
system.cpu2.dtb.walker.walkCompletionTime::0-8191            1      0.11%      0.11% # Table walker service (enqueue to completion) latency
system.cpu2.dtb.walker.walkCompletionTime::8192-16383          888     96.84%     96.95% # Table walker service (enqueue to completion) latency
system.cpu2.dtb.walker.walkCompletionTime::16384-24575            7      0.76%     97.71% # Table walker service (enqueue to completion) latency
system.cpu2.dtb.walker.walkCompletionTime::24576-32767            8      0.87%     98.58% # Table walker service (enqueue to completion) latency
system.cpu2.dtb.walker.walkCompletionTime::32768-40959            9      0.98%     99.56% # Table walker service (enqueue to completion) latency
system.cpu2.dtb.walker.walkCompletionTime::49152-57343            2      0.22%     99.78% # Table walker service (enqueue to completion) latency
system.cpu2.dtb.walker.walkCompletionTime::57344-65535            1      0.11%     99.89% # Table walker service (enqueue to completion) latency
system.cpu2.dtb.walker.walkCompletionTime::90112-98303            1      0.11%    100.00% # Table walker service (enqueue to completion) latency
system.cpu2.dtb.walker.walkCompletionTime::total          917                       # Table walker service (enqueue to completion) latency
system.cpu2.dtb.walker.walkPageSizes::4K          906     98.80%     98.80% # Table walker page sizes translated
system.cpu2.dtb.walker.walkPageSizes::2M           11      1.20%    100.00% # Table walker page sizes translated
system.cpu2.dtb.walker.walkPageSizes::total          917                       # Table walker page sizes translated
system.cpu2.dtb.walker.walkRequestOrigin_Requested::Data        14774                       # Table walker requests started/completed, data/inst
system.cpu2.dtb.walker.walkRequestOrigin_Requested::Inst            0                       # Table walker requests started/completed, data/inst
system.cpu2.dtb.walker.walkRequestOrigin_Requested::total        14774                       # Table walker requests started/completed, data/inst
system.cpu2.dtb.walker.walkRequestOrigin_Completed::Data          917                       # Table walker requests started/completed, data/inst
system.cpu2.dtb.walker.walkRequestOrigin_Completed::Inst            0                       # Table walker requests started/completed, data/inst
system.cpu2.dtb.walker.walkRequestOrigin_Completed::total          917                       # Table walker requests started/completed, data/inst
system.cpu2.dtb.walker.walkRequestOrigin::total        15691                       # Table walker requests started/completed, data/inst
system.cpu2.dtb.walker.walkWaitTime::samples        14774                       # Table walker wait (enqueue to first request) latency
system.cpu2.dtb.walker.walkWaitTime::0          14774    100.00%    100.00% # Table walker wait (enqueue to first request) latency
system.cpu2.dtb.walker.walkWaitTime::total        14774                       # Table walker wait (enqueue to first request) latency
system.cpu2.dtb.walker.walks                    14774                       # Table walker walks requested
system.cpu2.dtb.walker.walksLong                14774                       # Table walker walks initiated with long descriptors
system.cpu2.dtb.walker.walksLongTerminationLevel::Level2           11                       # Level at which table walker walks with long descriptors terminate
system.cpu2.dtb.walker.walksLongTerminationLevel::Level3          906                       # Level at which table walker walks with long descriptors terminate
system.cpu2.dtb.write_accesses                3811330                       # DTB write accesses
system.cpu2.dtb.write_hits                    3809715                       # DTB write hits
system.cpu2.dtb.write_misses                     1615                       # DTB write misses
system.cpu2.fetch2.amo_instructions                 0                       # Number of memory atomic instructions successfully decoded
system.cpu2.fetch2.fp_instructions                  0                       # Number of floating point instructions successfully decoded
system.cpu2.fetch2.int_instructions          38227229                       # Number of integer instructions successfully decoded
system.cpu2.fetch2.load_instructions          2917246                       # Number of memory load instructions successfully decoded
system.cpu2.fetch2.store_instructions         1175564                       # Number of memory store instructions successfully decoded
system.cpu2.fetch2.vec_instructions                 0                       # Number of SIMD instructions successfully decoded
system.cpu2.idleCycles                       23835758                       # Total number of cycles that the object has spent stopped
system.cpu2.ipc                              0.359271                       # IPC: instructions per cycle
system.cpu2.itb.accesses                     13915947                       # DTB accesses
system.cpu2.itb.align_faults                        0                       # Number of TLB faults due to alignment restrictions
system.cpu2.itb.domain_faults                       0                       # Number of TLB faults due to domain restrictions
system.cpu2.itb.flush_entries                       0                       # Number of entries that have been flushed from TLB
system.cpu2.itb.flush_tlb                           0                       # Number of times complete TLB was flushed
system.cpu2.itb.flush_tlb_asid                      0                       # Number of times TLB was flushed by ASID
system.cpu2.itb.flush_tlb_mva                       0                       # Number of times TLB was flushed by MVA
system.cpu2.itb.flush_tlb_mva_asid                  0                       # Number of times TLB was flushed by MVA & ASID
system.cpu2.itb.hits                         13910947                       # DTB hits
system.cpu2.itb.inst_accesses                13915947                       # ITB inst accesses
system.cpu2.itb.inst_hits                    13910947                       # ITB inst hits
system.cpu2.itb.inst_misses                      5000                       # ITB inst misses
system.cpu2.itb.misses                           5000                       # DTB misses
system.cpu2.itb.perms_faults                      553                       # Number of TLB faults due to permissions restrictions
system.cpu2.itb.prefetch_faults                     0                       # Number of TLB faults due to prefetch
system.cpu2.itb.read_accesses                       0                       # DTB read accesses
system.cpu2.itb.read_hits                           0                       # DTB read hits
system.cpu2.itb.read_misses                         0                       # DTB read misses
system.cpu2.itb.stage2_mmu.stage2_tlb.accesses            0                       # DTB accesses
system.cpu2.itb.stage2_mmu.stage2_tlb.align_faults            0                       # Number of TLB faults due to alignment restrictions
system.cpu2.itb.stage2_mmu.stage2_tlb.domain_faults            0                       # Number of TLB faults due to domain restrictions
system.cpu2.itb.stage2_mmu.stage2_tlb.flush_entries            0                       # Number of entries that have been flushed from TLB
system.cpu2.itb.stage2_mmu.stage2_tlb.flush_tlb            0                       # Number of times complete TLB was flushed
system.cpu2.itb.stage2_mmu.stage2_tlb.flush_tlb_asid            0                       # Number of times TLB was flushed by ASID
system.cpu2.itb.stage2_mmu.stage2_tlb.flush_tlb_mva            0                       # Number of times TLB was flushed by MVA
system.cpu2.itb.stage2_mmu.stage2_tlb.flush_tlb_mva_asid            0                       # Number of times TLB was flushed by MVA & ASID
system.cpu2.itb.stage2_mmu.stage2_tlb.hits            0                       # DTB hits
system.cpu2.itb.stage2_mmu.stage2_tlb.inst_accesses            0                       # ITB inst accesses
system.cpu2.itb.stage2_mmu.stage2_tlb.inst_hits            0                       # ITB inst hits
system.cpu2.itb.stage2_mmu.stage2_tlb.inst_misses            0                       # ITB inst misses
system.cpu2.itb.stage2_mmu.stage2_tlb.misses            0                       # DTB misses
system.cpu2.itb.stage2_mmu.stage2_tlb.perms_faults            0                       # Number of TLB faults due to permissions restrictions
system.cpu2.itb.stage2_mmu.stage2_tlb.prefetch_faults            0                       # Number of TLB faults due to prefetch
system.cpu2.itb.stage2_mmu.stage2_tlb.read_accesses            0                       # DTB read accesses
system.cpu2.itb.stage2_mmu.stage2_tlb.read_hits            0                       # DTB read hits
system.cpu2.itb.stage2_mmu.stage2_tlb.read_misses            0                       # DTB read misses
system.cpu2.itb.stage2_mmu.stage2_tlb.walker.walkRequestOrigin_Requested::Data            0                       # Table walker requests started/completed, data/inst
system.cpu2.itb.stage2_mmu.stage2_tlb.walker.walkRequestOrigin_Requested::Inst            0                       # Table walker requests started/completed, data/inst
system.cpu2.itb.stage2_mmu.stage2_tlb.walker.walkRequestOrigin_Requested::total            0                       # Table walker requests started/completed, data/inst
system.cpu2.itb.stage2_mmu.stage2_tlb.walker.walkRequestOrigin_Completed::Data            0                       # Table walker requests started/completed, data/inst
system.cpu2.itb.stage2_mmu.stage2_tlb.walker.walkRequestOrigin_Completed::Inst            0                       # Table walker requests started/completed, data/inst
system.cpu2.itb.stage2_mmu.stage2_tlb.walker.walkRequestOrigin_Completed::total            0                       # Table walker requests started/completed, data/inst
system.cpu2.itb.stage2_mmu.stage2_tlb.walker.walkRequestOrigin::total            0                       # Table walker requests started/completed, data/inst
system.cpu2.itb.stage2_mmu.stage2_tlb.walker.walks            0                       # Table walker walks requested
system.cpu2.itb.stage2_mmu.stage2_tlb.write_accesses            0                       # DTB write accesses
system.cpu2.itb.stage2_mmu.stage2_tlb.write_hits            0                       # DTB write hits
system.cpu2.itb.stage2_mmu.stage2_tlb.write_misses            0                       # DTB write misses
system.cpu2.itb.walker.walkCompletionTime::samples         3253                       # Table walker service (enqueue to completion) latency
system.cpu2.itb.walker.walkCompletionTime::mean 12363.854903                       # Table walker service (enqueue to completion) latency
system.cpu2.itb.walker.walkCompletionTime::gmean 11893.998940                       # Table walker service (enqueue to completion) latency
system.cpu2.itb.walker.walkCompletionTime::stdev  4682.203679                       # Table walker service (enqueue to completion) latency
system.cpu2.itb.walker.walkCompletionTime::8192-12287         2609     80.20%     80.20% # Table walker service (enqueue to completion) latency
system.cpu2.itb.walker.walkCompletionTime::12288-16383          479     14.72%     94.93% # Table walker service (enqueue to completion) latency
system.cpu2.itb.walker.walkCompletionTime::20480-24575           39      1.20%     96.13% # Table walker service (enqueue to completion) latency
system.cpu2.itb.walker.walkCompletionTime::24576-28671          113      3.47%     99.60% # Table walker service (enqueue to completion) latency
system.cpu2.itb.walker.walkCompletionTime::57344-61439           13      0.40%    100.00% # Table walker service (enqueue to completion) latency
system.cpu2.itb.walker.walkCompletionTime::total         3253                       # Table walker service (enqueue to completion) latency
system.cpu2.itb.walker.walkPageSizes::4K         3253    100.00%    100.00% # Table walker page sizes translated
system.cpu2.itb.walker.walkPageSizes::total         3253                       # Table walker page sizes translated
system.cpu2.itb.walker.walkRequestOrigin_Requested::Data            0                       # Table walker requests started/completed, data/inst
system.cpu2.itb.walker.walkRequestOrigin_Requested::Inst         5000                       # Table walker requests started/completed, data/inst
system.cpu2.itb.walker.walkRequestOrigin_Requested::total         5000                       # Table walker requests started/completed, data/inst
system.cpu2.itb.walker.walkRequestOrigin_Completed::Data            0                       # Table walker requests started/completed, data/inst
system.cpu2.itb.walker.walkRequestOrigin_Completed::Inst         3253                       # Table walker requests started/completed, data/inst
[...]
system.mem_ctrls.wrQLenPdf::46                      0                       # What write queue length does an incoming req see
system.mem_ctrls.wrQLenPdf::47                      0                       # What write queue length does an incoming req see
system.mem_ctrls.wrQLenPdf::48                      0                       # What write queue length does an incoming req see
system.mem_ctrls.wrQLenPdf::49                      0                       # What write queue length does an incoming req see
system.mem_ctrls.wrQLenPdf::50                      0                       # What write queue length does an incoming req see
system.mem_ctrls.wrQLenPdf::51                      0                       # What write queue length does an incoming req see
system.mem_ctrls.wrQLenPdf::52                      0                       # What write queue length does an incoming req see
system.mem_ctrls.wrQLenPdf::53                      0                       # What write queue length does an incoming req see
system.mem_ctrls.wrQLenPdf::54                      0                       # What write queue length does an incoming req see
system.mem_ctrls.wrQLenPdf::55                      0                       # What write queue length does an incoming req see
system.mem_ctrls.wrQLenPdf::56                      0                       # What write queue length does an incoming req see
system.mem_ctrls.wrQLenPdf::57                      0                       # What write queue length does an incoming req see
system.mem_ctrls.wrQLenPdf::58                      0                       # What write queue length does an incoming req see
system.mem_ctrls.wrQLenPdf::59                      0                       # What write queue length does an incoming req see
system.mem_ctrls.wrQLenPdf::60                      0                       # What write queue length does an incoming req see
system.mem_ctrls.wrQLenPdf::61                      0                       # What write queue length does an incoming req see
system.mem_ctrls.wrQLenPdf::62                      0                       # What write queue length does an incoming req see
system.mem_ctrls.wrQLenPdf::63                      0                       # What write queue length does an incoming req see
system.mem_ctrls.bytesReadDRAM                      0                       # Total number of bytes read from DRAM
system.mem_ctrls.bytesReadWrQ                       0                       # Total number of bytes read from write queue
system.mem_ctrls.bytesWritten                       0                       # Total number of bytes written to DRAM
system.mem_ctrls.bytesReadSys                       0                       # Total read bytes from the system interface side
system.mem_ctrls.bytesWrittenSys                    0                       # Total written bytes from the system interface side
system.mem_ctrls.avgRdBW                         0.00                       # Average DRAM read bandwidth in MiByte/s
system.mem_ctrls.avgWrBW                         0.00                       # Average achieved write bandwidth in MiByte/s
system.mem_ctrls.avgRdBWSys                      0.00                       # Average system read bandwidth in MiByte/s
system.mem_ctrls.avgWrBWSys                      0.00                       # Average system write bandwidth in MiByte/s
system.mem_ctrls.peakBW                       4266.00                       # Theoretical peak bandwidth in MiByte/s
system.mem_ctrls.busUtil                         0.00                       # Data bus utilization in percentage
system.mem_ctrls.busUtilRead                     0.00                       # Data bus utilization in percentage for reads
system.mem_ctrls.busUtilWrite                    0.00                       # Data bus utilization in percentage for writes
system.mem_ctrls.totGap                             0                       # Total gap between requests
system.mem_ctrls.avgGap                           nan                       # Average gap between requests
system.mem_ctrls.pageHitRate                      nan                       # Row buffer hit rate, read and write combined
system.mem_ctrls.rank0.actEnergy                    0                       # Energy for activate commands per rank (pJ)
system.mem_ctrls.rank0.preEnergy                    0                       # Energy for precharge commands per rank (pJ)
system.mem_ctrls.rank0.readEnergy                   0                       # Energy for read commands per rank (pJ)
system.mem_ctrls.rank0.writeEnergy                  0                       # Energy for write commands per rank (pJ)
system.mem_ctrls.rank0.refreshEnergy     38356142.580000                       # Energy for refresh commands per rank (pJ)
system.mem_ctrls.rank0.actBackEnergy     6505388.316000                       # Energy for active background per rank (pJ)
system.mem_ctrls.rank0.preBackEnergy     206036485.300801                       # Energy for precharge background per rank (pJ)
system.mem_ctrls.rank0.actPowerDownEnergy            0                       # Energy for active power-down per rank (pJ)
system.mem_ctrls.rank0.prePowerDownEnergy            0                       # Energy for precharge power-down per rank (pJ)
system.mem_ctrls.rank0.selfRefreshEnergy            0                       # Energy for self refresh per rank (pJ)
system.mem_ctrls.rank0.totalEnergy       250898016.196792                       # Total energy per rank (pJ)
system.mem_ctrls.rank0.averagePower         46.778199                       # Core power per rank (mW)
system.mem_ctrls.rank0.totalIdleTime                0                       # Total Idle time Per DRAM Rank
system.mem_ctrls.rank0.memoryStateTime::IDLE   5185799848                       # Time in different power states
system.mem_ctrls.rank0.memoryStateTime::REF    179530000                       # Time in different power states
system.mem_ctrls.rank0.memoryStateTime::SREF            0                       # Time in different power states
system.mem_ctrls.rank0.memoryStateTime::PRE_PDN            0                       # Time in different power states
system.mem_ctrls.rank0.memoryStateTime::ACT            0                       # Time in different power states
system.mem_ctrls.rank0.memoryStateTime::ACT_PDN            0                       # Time in different power states
system.cpu1.pwrStateClkGateDist::samples            1                       # Distribution of time spent in the clock gated state
system.cpu1.pwrStateClkGateDist::mean      5505168480                       # Distribution of time spent in the clock gated state
system.cpu1.pwrStateClkGateDist::1000-5e+10            1    100.00%    100.00% # Distribution of time spent in the clock gated state
system.cpu1.pwrStateClkGateDist::min_value   5505168480                       # Distribution of time spent in the clock gated state
system.cpu1.pwrStateClkGateDist::max_value   5505168480                       # Distribution of time spent in the clock gated state
system.cpu1.pwrStateClkGateDist::total              1                       # Distribution of time spent in the clock gated state
system.cpu1.pwrStateResidencyTicks::CLK_GATED   5505168480                       # Cumulative time (in ticks) in various power states
system.cpu1.icache.pwrStateResidencyTicks::UNDEFINED   5505168480                       # Cumulative time (in ticks) in various power states
system.cpu1.icache.blocked_cycles::no_mshrs            0                       # number of cycles access was blocked
system.cpu1.icache.blocked_cycles::no_targets            0                       # number of cycles access was blocked
system.cpu1.icache.blocked::no_mshrs                0                       # number of cycles access was blocked
system.cpu1.icache.blocked::no_targets              0                       # number of cycles access was blocked
system.cpu1.icache.avg_blocked_cycles::no_mshrs          nan                       # average number of cycles each access was blocked
system.cpu1.icache.avg_blocked_cycles::no_targets          nan                       # average number of cycles each access was blocked
system.cpu1.icache.replacements                     0                       # number of replacements
system.cpu1.icache.tags.pwrStateResidencyTicks::UNDEFINED   5505168480                       # Cumulative time (in ticks) in various power states
system.cpu1.icache.tags.tagsinuse               13715                       # Cycle average of tags in use
system.cpu1.icache.tags.total_refs            3970746                       # Total number of references to valid blocks.
system.cpu1.icache.tags.sampled_refs            13715                       # Sample count of references to valid blocks.
system.cpu1.icache.tags.avg_refs           289.518483                       # Average number of references to valid blocks.
system.cpu1.icache.tags.warmup_cycle                0                       # Cycle when the warmup percentage was hit.
system.cpu1.icache.tags.occ_blocks::.cpu1.inst        13715                       # Average occupied blocks per requestor
system.cpu1.icache.tags.occ_percent::.cpu1.inst     0.006540                       # Average percentage of cache occupancy
system.cpu1.icache.tags.occ_percent::total     0.006540                       # Average percentage of cache occupancy
system.cpu1.icache.tags.occ_task_id_blocks::1024        13715                       # Occupied blocks per task id
system.cpu1.icache.tags.age_task_id_blocks_1024::4        13715                       # Occupied blocks per task id
system.cpu1.icache.tags.occ_task_id_percent::1024     0.006540                       # Percentage of cache occupancy per task id
system.cpu1.icache.tags.tag_accesses                0                       # Number of tag accesses
system.cpu1.icache.tags.data_accesses               0                       # Number of data accesses
system.cpu1.dtb.walker.pwrStateResidencyTicks::UNDEFINED   5505168480                       # Cumulative time (in ticks) in various power states
system.cpu1.dtb.stage2_mmu.stage2_tlb.walker.pwrStateResidencyTicks::UNDEFINED   5505168480                       # Cumulative time (in ticks) in various power states
system.cpu1.itb_walker_cache.pwrStateResidencyTicks::UNDEFINED   5505168480                       # Cumulative time (in ticks) in various power states
system.cpu1.itb_walker_cache.blocked_cycles::no_mshrs            0                       # number of cycles access was blocked
system.cpu1.itb_walker_cache.blocked_cycles::no_targets            0                       # number of cycles access was blocked
system.cpu1.itb_walker_cache.blocked::no_mshrs            0                       # number of cycles access was blocked
system.cpu1.itb_walker_cache.blocked::no_targets            0                       # number of cycles access was blocked
system.cpu1.itb_walker_cache.avg_blocked_cycles::no_mshrs          nan                       # average number of cycles each access was blocked
system.cpu1.itb_walker_cache.avg_blocked_cycles::no_targets          nan                       # average number of cycles each access was blocked
system.cpu1.itb_walker_cache.replacements            0                       # number of replacements
system.cpu1.itb_walker_cache.tags.pwrStateResidencyTicks::UNDEFINED   5505168480                       # Cumulative time (in ticks) in various power states
system.cpu1.itb_walker_cache.tags.tagsinuse           16                       # Cycle average of tags in use
system.cpu1.itb_walker_cache.tags.total_refs          116                       # Total number of references to valid blocks.
system.cpu1.itb_walker_cache.tags.sampled_refs           16                       # Sample count of references to valid blocks.
system.cpu1.itb_walker_cache.tags.avg_refs     7.250000                       # Average number of references to valid blocks.
system.cpu1.itb_walker_cache.tags.warmup_cycle            0                       # Cycle when the warmup percentage was hit.
system.cpu1.itb_walker_cache.tags.occ_blocks::.cpu1.itb.walker           16                       # Average occupied blocks per requestor
system.cpu1.itb_walker_cache.tags.occ_percent::.cpu1.itb.walker            1                       # Average percentage of cache occupancy
system.cpu1.itb_walker_cache.tags.occ_percent::total            1                       # Average percentage of cache occupancy
system.cpu1.itb_walker_cache.tags.occ_task_id_blocks::1023           16                       # Occupied blocks per task id
system.cpu1.itb_walker_cache.tags.age_task_id_blocks_1023::4           16                       # Occupied blocks per task id
system.cpu1.itb_walker_cache.tags.occ_task_id_percent::1023            1                       # Percentage of cache occupancy per task id
system.cpu1.itb_walker_cache.tags.tag_accesses            0                       # Number of tag accesses
system.cpu1.itb_walker_cache.tags.data_accesses            0                       # Number of data accesses
system.cpu1.dtb_walker_cache.pwrStateResidencyTicks::UNDEFINED   5505168480                       # Cumulative time (in ticks) in various power states
system.cpu1.dtb_walker_cache.blocked_cycles::no_mshrs            0                       # number of cycles access was blocked
system.cpu1.dtb_walker_cache.blocked_cycles::no_targets            0                       # number of cycles access was blocked
system.cpu1.dtb_walker_cache.blocked::no_mshrs            0                       # number of cycles access was blocked
system.cpu1.dtb_walker_cache.blocked::no_targets            0                       # number of cycles access was blocked
system.cpu1.dtb_walker_cache.avg_blocked_cycles::no_mshrs          nan                       # average number of cycles each access was blocked
system.cpu1.dtb_walker_cache.avg_blocked_cycles::no_targets          nan                       # average number of cycles each access was blocked
system.cpu1.dtb_walker_cache.replacements            0                       # number of replacements
system.cpu1.dtb_walker_cache.tags.pwrStateResidencyTicks::UNDEFINED   5505168480                       # Cumulative time (in ticks) in various power states
system.cpu1.dtb_walker_cache.tags.tagsinuse           16                       # Cycle average of tags in use
system.cpu1.dtb_walker_cache.tags.total_refs          860                       # Total number of references to valid blocks.
system.cpu1.dtb_walker_cache.tags.sampled_refs           16                       # Sample count of references to valid blocks.
system.cpu1.dtb_walker_cache.tags.avg_refs    53.750000                       # Average number of references to valid blocks.
system.cpu1.dtb_walker_cache.tags.warmup_cycle            0                       # Cycle when the warmup percentage was hit.
system.cpu1.dtb_walker_cache.tags.occ_blocks::.cpu1.dtb.walker           16                       # Average occupied blocks per requestor
system.cpu1.dtb_walker_cache.tags.occ_percent::.cpu1.dtb.walker            1                       # Average percentage of cache occupancy
system.cpu1.dtb_walker_cache.tags.occ_percent::total            1                       # Average percentage of cache occupancy
system.cpu1.dtb_walker_cache.tags.occ_task_id_blocks::1023           16                       # Occupied blocks per task id
system.cpu1.dtb_walker_cache.tags.age_task_id_blocks_1023::4           16                       # Occupied blocks per task id
system.cpu1.dtb_walker_cache.tags.occ_task_id_percent::1023            1                       # Percentage of cache occupancy per task id
system.cpu1.dtb_walker_cache.tags.tag_accesses            0                       # Number of tag accesses
system.cpu1.dtb_walker_cache.tags.data_accesses            0                       # Number of data accesses
system.cpu1.dcache.pwrStateResidencyTicks::UNDEFINED   5505168480                       # Cumulative time (in ticks) in various power states
system.cpu1.dcache.blocked_cycles::no_mshrs            0                       # number of cycles access was blocked
system.cpu1.dcache.blocked_cycles::no_targets            0                       # number of cycles access was blocked
system.cpu1.dcache.blocked::no_mshrs                0                       # number of cycles access was blocked
system.cpu1.dcache.blocked::no_targets              0                       # number of cycles access was blocked
system.cpu1.dcache.avg_blocked_cycles::no_mshrs          nan                       # average number of cycles each access was blocked
system.cpu1.dcache.avg_blocked_cycles::no_targets          nan                       # average number of cycles each access was blocked
system.cpu1.dcache.replacements                     0                       # number of replacements
system.cpu1.dcache.prefetcher.pwrStateResidencyTicks::UNDEFINED   5505168480                       # Cumulative time (in ticks) in various power states
system.cpu1.dcache.tags.pwrStateResidencyTicks::UNDEFINED   5505168480                       # Cumulative time (in ticks) in various power states
system.cpu1.dcache.tags.tagsinuse               16993                       # Cycle average of tags in use
system.cpu1.dcache.tags.total_refs            2695905                       # Total number of references to valid blocks.
system.cpu1.dcache.tags.sampled_refs            16993                       # Sample count of references to valid blocks.
system.cpu1.dcache.tags.avg_refs           158.647973                       # Average number of references to valid blocks.
system.cpu1.dcache.tags.warmup_cycle                0                       # Cycle when the warmup percentage was hit.
system.cpu1.dcache.tags.occ_blocks::.cpu1.data        13140                       # Average occupied blocks per requestor
system.cpu1.dcache.tags.occ_blocks::.cpu1.dcache.prefetcher         3853                       # Average occupied blocks per requestor
system.cpu1.dcache.tags.occ_percent::.cpu1.data     0.006266                       # Average percentage of cache occupancy
system.cpu1.dcache.tags.occ_percent::.cpu1.dcache.prefetcher     0.001837                       # Average percentage of cache occupancy
system.cpu1.dcache.tags.occ_percent::total     0.008103                       # Average percentage of cache occupancy
system.cpu1.dcache.tags.occ_task_id_blocks::1022         3853                       # Occupied blocks per task id
system.cpu1.dcache.tags.occ_task_id_blocks::1024        13140                       # Occupied blocks per task id
system.cpu1.dcache.tags.age_task_id_blocks_1022::4         3853                       # Occupied blocks per task id
system.cpu1.dcache.tags.age_task_id_blocks_1024::4        13140                       # Occupied blocks per task id
system.cpu1.dcache.tags.occ_task_id_percent::1022     0.001837                       # Percentage of cache occupancy per task id
system.cpu1.dcache.tags.occ_task_id_percent::1024     0.006266                       # Percentage of cache occupancy per task id
system.cpu1.dcache.tags.tag_accesses                0                       # Number of tag accesses
system.cpu1.dcache.tags.data_accesses               0                       # Number of data accesses
system.cpu1.itb.walker.pwrStateResidencyTicks::UNDEFINED   5505168480                       # Cumulative time (in ticks) in various power states
system.cpu1.itb.stage2_mmu.stage2_tlb.walker.pwrStateResidencyTicks::UNDEFINED   5505168480                       # Cumulative time (in ticks) in various power states
system.cpu_clk_domain.clock                       714                       # Clock period in ticks
system.pci_ide.pwrStateResidencyTicks::UNDEFINED   5505168480                       # Cumulative time (in ticks) in various power states

---------- End Simulation Statistics   ----------
