
---------- Begin Simulation Statistics ----------
final_tick                               47146019604810672                       # Number of ticks from beginning of simulation (restored from checkpoints and never reset)
host_inst_rate                                 469933                       # Simulator instruction rate (inst/s)
host_mem_usage                                4155692                       # Number of bytes of host memory used
host_op_rate                                   576373                       # Simulator op (including micro ops) rate (op/s)
host_seconds                                    90.20                       # Real time elapsed on the host
host_tick_rate                              493573579                       # Simulator tick rate (ticks/s)
sim_freq                                 1000000000000                       # Frequency of simulated ticks
sim_insts                                    42389509                       # Number of instructions simulated
sim_ops                                      51990830                       # Number of ops (including micro ops) simulated
sim_seconds                                  0.044522                       # Number of seconds simulated
sim_ticks                                 44522044056                       # Number of ticks simulated
system.cpu0.branchPred.BTBCorrect                   0                       # Number of correct BTB predictions (this stat may not work properly.
system.cpu0.branchPred.BTBHitPct            17.586573                       # BTB Hit Percentage
system.cpu0.branchPred.BTBHits                  25347                       # Number of BTB hits
system.cpu0.branchPred.BTBLookups              144127                       # Number of BTB lookups
system.cpu0.branchPred.RASInCorrect              4677                       # Number of incorrect RAS predictions.
system.cpu0.branchPred.condIncorrect            29107                       # Number of conditional branches incorrect
system.cpu0.branchPred.condPredicted            83396                       # Number of conditional branches predicted
system.cpu0.branchPred.indirectHits              2448                       # Number of indirect target hits.
system.cpu0.branchPred.indirectLookups           3624                       # Number of indirect predictor lookups.
system.cpu0.branchPred.indirectMisses            1176                       # Number of indirect misses.
system.cpu0.branchPred.lookups                 200741                       # Number of BP lookups
system.cpu0.branchPred.usedRAS                  54676                       # Number of times the RAS was used to get a target.
system.cpu0.branchPredindirectMispredicted          154                       # Number of mispredicted indirect branches.
system.cpu0.committedInsts                     479800                       # Number of instructions committed
system.cpu0.committedOps                       637891                       # Number of ops (including micro ops) committed
system.cpu0.cpi                              2.237107                       # CPI: cycles per instruction
system.cpu0.dcache.prefetcher.num_hwpf_issued            2                       # number of hwpf issued
system.cpu0.dcache.prefetcher.pfBufferHit            0                       # number of redundant prefetches already in prefetch queue
system.cpu0.dcache.prefetcher.pfIdentified            2                       # number of prefetch candidates identified
system.cpu0.dcache.prefetcher.pfInCache             0                       # number of redundant prefetches already in cache/mshr dropped
system.cpu0.dcache.prefetcher.pfRemovedFull            0                       # number of prefetches dropped due to prefetch queue size
system.cpu0.dcache.prefetcher.pfSpanPage           30                       # number of prefetches that crossed the page
system.cpu0.discardedOps                        96518                       # Number of ops (including micro ops) which were discarded before commit
system.cpu0.dtb.accesses                       238771                       # DTB accesses
system.cpu0.dtb.align_faults                        0                       # Number of TLB faults due to alignment restrictions
system.cpu0.dtb.domain_faults                       0                       # Number of TLB faults due to domain restrictions
system.cpu0.dtb.flush_entries                       0                       # Number of entries that have been flushed from TLB
system.cpu0.dtb.flush_tlb                           0                       # Number of times complete TLB was flushed
system.cpu0.dtb.flush_tlb_asid                      0                       # Number of times TLB was flushed by ASID
system.cpu0.dtb.flush_tlb_mva                       0                       # Number of times TLB was flushed by MVA
system.cpu0.dtb.flush_tlb_mva_asid                  0                       # Number of times TLB was flushed by MVA & ASID
system.cpu0.dtb.hits                           237767                       # DTB hits
system.cpu0.dtb.inst_accesses                       0                       # ITB inst accesses
system.cpu0.dtb.inst_hits                           0                       # ITB inst hits
system.cpu0.dtb.inst_misses                         0                       # ITB inst misses
system.cpu0.dtb.misses                           1004                       # DTB misses
system.cpu0.dtb.perms_faults                        8                       # Number of TLB faults due to permissions restrictions
system.cpu0.dtb.prefetch_faults                     7                       # Number of TLB faults due to prefetch
system.cpu0.dtb.read_accesses                  127441                       # DTB read accesses
system.cpu0.dtb.read_hits                      126702                       # DTB read hits
system.cpu0.dtb.read_misses                       739                       # DTB read misses
system.cpu0.dtb.stage2_mmu.stage2_tlb.accesses            0                       # DTB accesses
system.cpu0.dtb.stage2_mmu.stage2_tlb.align_faults            0                       # Number of TLB faults due to alignment restrictions
system.cpu0.dtb.stage2_mmu.stage2_tlb.domain_faults            0                       # Number of TLB faults due to domain restrictions
system.cpu0.dtb.stage2_mmu.stage2_tlb.flush_entries            0                       # Number of entries that have been flushed from TLB
system.cpu0.dtb.stage2_mmu.stage2_tlb.flush_tlb            0                       # Number of times complete TLB was flushed
system.cpu0.dtb.stage2_mmu.stage2_tlb.flush_tlb_asid            0                       # Number of times TLB was flushed by ASID
system.cpu0.dtb.stage2_mmu.stage2_tlb.flush_tlb_mva            0                       # Number of times TLB was flushed by MVA
system.cpu0.dtb.stage2_mmu.stage2_tlb.flush_tlb_mva_asid            0                       # Number of times TLB was flushed by MVA & ASID
system.cpu0.dtb.stage2_mmu.stage2_tlb.hits            0                       # DTB hits
system.cpu0.dtb.stage2_mmu.stage2_tlb.inst_accesses            0                       # ITB inst accesses
system.cpu0.dtb.stage2_mmu.stage2_tlb.inst_hits            0                       # ITB inst hits
system.cpu0.dtb.stage2_mmu.stage2_tlb.inst_misses            0                       # ITB inst misses
system.cpu0.dtb.stage2_mmu.stage2_tlb.misses            0                       # DTB misses
system.cpu0.dtb.stage2_mmu.stage2_tlb.perms_faults            0                       # Number of TLB faults due to permissions restrictions
system.cpu0.dtb.stage2_mmu.stage2_tlb.prefetch_faults            0                       # Number of TLB faults due to prefetch
system.cpu0.dtb.stage2_mmu.stage2_tlb.read_accesses            0                       # DTB read accesses
system.cpu0.dtb.stage2_mmu.stage2_tlb.read_hits            0                       # DTB read hits
system.cpu0.dtb.stage2_mmu.stage2_tlb.read_misses            0                       # DTB read misses
system.cpu0.dtb.stage2_mmu.stage2_tlb.walker.walkRequestOrigin_Requested::Data            0                       # Table walker requests started/completed, data/inst
system.cpu0.dtb.stage2_mmu.stage2_tlb.walker.walkRequestOrigin_Requested::Inst            0                       # Table walker requests started/completed, data/inst
system.cpu0.dtb.stage2_mmu.stage2_tlb.walker.walkRequestOrigin_Requested::total            0                       # Table walker requests started/completed, data/inst
system.cpu0.dtb.stage2_mmu.stage2_tlb.walker.walkRequestOrigin_Completed::Data            0                       # Table walker requests started/completed, data/inst
system.cpu0.dtb.stage2_mmu.stage2_tlb.walker.walkRequestOrigin_Completed::Inst            0                       # Table walker requests started/completed, data/inst
system.cpu0.dtb.stage2_mmu.stage2_tlb.walker.walkRequestOrigin_Completed::total            0                       # Table walker requests started/completed, data/inst
system.cpu0.dtb.stage2_mmu.stage2_tlb.walker.walkRequestOrigin::total            0                       # Table walker requests started/completed, data/inst
system.cpu0.dtb.stage2_mmu.stage2_tlb.walker.walks            0                       # Table walker walks requested
system.cpu0.dtb.stage2_mmu.stage2_tlb.write_accesses            0                       # DTB write accesses
system.cpu0.dtb.stage2_mmu.stage2_tlb.write_hits            0                       # DTB write hits
system.cpu0.dtb.stage2_mmu.stage2_tlb.write_misses            0                       # DTB write misses
system.cpu0.dtb.walker.walkCompletionTime::samples            2                       # Table walker service (enqueue to completion) latency
system.cpu0.dtb.walker.walkCompletionTime::mean        18921                       # Table walker service (enqueue to completion) latency
system.cpu0.dtb.walker.walkCompletionTime::gmean 17046.516360                       # Table walker service (enqueue to completion) latency
system.cpu0.dtb.walker.walkCompletionTime::stdev 11612.107561                       # Table walker service (enqueue to completion) latency
system.cpu0.dtb.walker.walkCompletionTime::10240-12287            1     50.00%     50.00% # Table walker service (enqueue to completion) latency
system.cpu0.dtb.walker.walkCompletionTime::26624-28671            1     50.00%    100.00% # Table walker service (enqueue to completion) latency
system.cpu0.dtb.walker.walkCompletionTime::total            2                       # Table walker service (enqueue to completion) latency
system.cpu0.dtb.walker.walkPageSizes::4K            2    100.00%    100.00% # Table walker page sizes translated
system.cpu0.dtb.walker.walkPageSizes::total            2                       # Table walker page sizes translated
system.cpu0.dtb.walker.walkRequestOrigin_Requested::Data         1004                       # Table walker requests started/completed, data/inst
system.cpu0.dtb.walker.walkRequestOrigin_Requested::Inst            0                       # Table walker requests started/completed, data/inst
system.cpu0.dtb.walker.walkRequestOrigin_Requested::total         1004                       # Table walker requests started/completed, data/inst
system.cpu0.dtb.walker.walkRequestOrigin_Completed::Data            2                       # Table walker requests started/completed, data/inst
system.cpu0.dtb.walker.walkRequestOrigin_Completed::Inst            0                       # Table walker requests started/completed, data/inst
system.cpu0.dtb.walker.walkRequestOrigin_Completed::total            2                       # Table walker requests started/completed, data/inst
system.cpu0.dtb.walker.walkRequestOrigin::total         1006                       # Table walker requests started/completed, data/inst
system.cpu0.dtb.walker.walkWaitTime::samples         1004                       # Table walker wait (enqueue to first request) latency
system.cpu0.dtb.walker.walkWaitTime::0           1004    100.00%    100.00% # Table walker wait (enqueue to first request) latency
system.cpu0.dtb.walker.walkWaitTime::total         1004                       # Table walker wait (enqueue to first request) latency
system.cpu0.dtb.walker.walks                     1004                       # Table walker walks requested
system.cpu0.dtb.walker.walksLong                 1004                       # Table walker walks initiated with long descriptors
system.cpu0.dtb.walker.walksLongTerminationLevel::Level3            2                       # Level at which table walker walks with long descriptors terminate
system.cpu0.dtb.write_accesses                 111330                       # DTB write accesses
system.cpu0.dtb.write_hits                     111065                       # DTB write hits
system.cpu0.dtb.write_misses                      265                       # DTB write misses
system.cpu0.fetch2.amo_instructions                 0                       # Number of memory atomic instructions successfully decoded
system.cpu0.fetch2.fp_instructions                  0                       # Number of floating point instructions successfully decoded
system.cpu0.fetch2.int_instructions            524726                       # Number of integer instructions successfully decoded
system.cpu0.fetch2.load_instructions           133886                       # Number of memory load instructions successfully decoded
system.cpu0.fetch2.store_instructions           38380                       # Number of memory store instructions successfully decoded
system.cpu0.fetch2.vec_instructions                 0                       # Number of SIMD instructions successfully decoded
system.cpu0.idleCycles                         187013                       # Total number of cycles that the object has spent stopped
system.cpu0.ipc                              0.447006                       # IPC: instructions per cycle
system.cpu0.itb.accesses                       300752                       # DTB accesses
system.cpu0.itb.align_faults                        0                       # Number of TLB faults due to alignment restrictions
system.cpu0.itb.domain_faults                       0                       # Number of TLB faults due to domain restrictions
system.cpu0.itb.flush_entries                       0                       # Number of entries that have been flushed from TLB
system.cpu0.itb.flush_tlb                           0                       # Number of times complete TLB was flushed
system.cpu0.itb.flush_tlb_asid                      0                       # Number of times TLB was flushed by ASID
system.cpu0.itb.flush_tlb_mva                       0                       # Number of times TLB was flushed by MVA
system.cpu0.itb.flush_tlb_mva_asid                  0                       # Number of times TLB was flushed by MVA & ASID
system.cpu0.itb.hits                           300751                       # DTB hits
system.cpu0.itb.inst_accesses                  300752                       # ITB inst accesses
system.cpu0.itb.inst_hits                      300751                       # ITB inst hits
system.cpu0.itb.inst_misses                         1                       # ITB inst misses
system.cpu0.itb.misses                              1                       # DTB misses
system.cpu0.itb.perms_faults                        0                       # Number of TLB faults due to permissions restrictions
system.cpu0.itb.prefetch_faults                     0                       # Number of TLB faults due to prefetch
system.cpu0.itb.read_accesses                       0                       # DTB read accesses
system.cpu0.itb.read_hits                           0                       # DTB read hits
system.cpu0.itb.read_misses                         0                       # DTB read misses
system.cpu0.itb.stage2_mmu.stage2_tlb.accesses            0                       # DTB accesses
system.cpu0.itb.stage2_mmu.stage2_tlb.align_faults            0                       # Number of TLB faults due to alignment restrictions
system.cpu0.itb.stage2_mmu.stage2_tlb.domain_faults            0                       # Number of TLB faults due to domain restrictions
system.cpu0.itb.stage2_mmu.stage2_tlb.flush_entries            0                       # Number of entries that have been flushed from TLB
system.cpu0.itb.stage2_mmu.stage2_tlb.flush_tlb            0                       # Number of times complete TLB was flushed
system.cpu0.itb.stage2_mmu.stage2_tlb.flush_tlb_asid            0                       # Number of times TLB was flushed by ASID
system.cpu0.itb.stage2_mmu.stage2_tlb.flush_tlb_mva            0                       # Number of times TLB was flushed by MVA
system.cpu0.itb.stage2_mmu.stage2_tlb.flush_tlb_mva_asid            0                       # Number of times TLB was flushed by MVA & ASID
system.cpu0.itb.stage2_mmu.stage2_tlb.hits            0                       # DTB hits
system.cpu0.itb.stage2_mmu.stage2_tlb.inst_accesses            0                       # ITB inst accesses
system.cpu0.itb.stage2_mmu.stage2_tlb.inst_hits            0                       # ITB inst hits
system.cpu0.itb.stage2_mmu.stage2_tlb.inst_misses            0                       # ITB inst misses
system.cpu0.itb.stage2_mmu.stage2_tlb.misses            0                       # DTB misses
system.cpu0.itb.stage2_mmu.stage2_tlb.perms_faults            0                       # Number of TLB faults due to permissions restrictions
system.cpu0.itb.stage2_mmu.stage2_tlb.prefetch_faults            0                       # Number of TLB faults due to prefetch
system.cpu0.itb.stage2_mmu.stage2_tlb.read_accesses            0                       # DTB read accesses
system.cpu0.itb.stage2_mmu.stage2_tlb.read_hits            0                       # DTB read hits
system.cpu0.itb.stage2_mmu.stage2_tlb.read_misses            0                       # DTB read misses
system.cpu0.itb.stage2_mmu.stage2_tlb.walker.walkRequestOrigin_Requested::Data            0                       # Table walker requests started/completed, data/inst
system.cpu0.itb.stage2_mmu.stage2_tlb.walker.walkRequestOrigin_Requested::Inst            0                       # Table walker requests started/completed, data/inst
system.cpu0.itb.stage2_mmu.stage2_tlb.walker.walkRequestOrigin_Requested::total            0                       # Table walker requests started/completed, data/inst
system.cpu0.itb.stage2_mmu.stage2_tlb.walker.walkRequestOrigin_Completed::Data            0                       # Table walker requests started/completed, data/inst
system.cpu0.itb.stage2_mmu.stage2_tlb.walker.walkRequestOrigin_Completed::Inst            0                       # Table walker requests started/completed, data/inst
system.cpu0.itb.stage2_mmu.stage2_tlb.walker.walkRequestOrigin_Completed::total            0                       # Table walker requests started/completed, data/inst
system.cpu0.itb.stage2_mmu.stage2_tlb.walker.walkRequestOrigin::total            0                       # Table walker requests started/completed, data/inst
system.cpu0.itb.stage2_mmu.stage2_tlb.walker.walks            0                       # Table walker walks requested
system.cpu0.itb.stage2_mmu.stage2_tlb.write_accesses            0                       # DTB write accesses
system.cpu0.itb.stage2_mmu.stage2_tlb.write_hits            0                       # DTB write hits
system.cpu0.itb.stage2_mmu.stage2_tlb.write_misses            0                       # DTB write misses
system.cpu0.itb.walker.walkCompletionTime::samples            1                       # Table walker service (enqueue to completion) latency
system.cpu0.itb.walker.walkCompletionTime::mean        27132                       # Table walker service (enqueue to completion) latency
system.cpu0.itb.walker.walkCompletionTime::gmean 27132.000000                       # Table walker service (enqueue to completion) latency
system.cpu0.itb.walker.walkCompletionTime::26624-28671            1    100.00%    100.00% # Table walker service (enqueue to completion) latency
system.cpu0.itb.walker.walkCompletionTime::total            1                       # Table walker service (enqueue to completion) latency
system.cpu0.itb.walker.walkPageSizes::4K            1    100.00%    100.00% # Table walker page sizes translated
system.cpu0.itb.walker.walkPageSizes::total            1                       # Table walker page sizes translated
system.cpu0.itb.walker.walkRequestOrigin_Requested::Data            0                       # Table walker requests started/completed, data/inst
system.cpu0.itb.walker.walkRequestOrigin_Requested::Inst            1                       # Table walker requests started/completed, data/inst
system.cpu0.itb.walker.walkRequestOrigin_Requested::total            1                       # Table walker requests started/completed, data/inst
system.cpu0.itb.walker.walkRequestOrigin_Completed::Data            0                       # Table walker requests started/completed, data/inst
system.cpu0.itb.walker.walkRequestOrigin_Completed::Inst            1                       # Table walker requests started/completed, data/inst
system.cpu0.itb.walker.walkRequestOrigin_Completed::total            1                       # Table walker requests started/completed, data/inst
system.cpu0.itb.walker.walkRequestOrigin::total            2                       # Table walker requests started/completed, data/inst
system.cpu0.itb.walker.walkWaitTime::samples            1                       # Table walker wait (enqueue to first request) latency
system.cpu0.itb.walker.walkWaitTime::0              1    100.00%    100.00% # Table walker wait (enqueue to first request) latency
system.cpu0.itb.walker.walkWaitTime::total            1                       # Table walker wait (enqueue to first request) latency
system.cpu0.itb.walker.walks                        1                       # Table walker walks requested
system.cpu0.itb.walker.walksLong                    1                       # Table walker walks initiated with long descriptors
system.cpu0.itb.walker.walksLongTerminationLevel::Level3            1                       # Level at which table walker walks with long descriptors terminate
system.cpu0.itb.write_accesses                      0                       # DTB write accesses
system.cpu0.itb.write_hits                          0                       # DTB write hits
system.cpu0.itb.write_misses                        0                       # DTB write misses
system.cpu0.kern.inst.arm                           0                       # number of arm instructions executed
system.cpu0.kern.inst.quiesce                     111                       # number of quiesce instructions executed
system.cpu0.numCycles                         1073364                       # number of cpu cycles simulated
system.cpu0.numFetchSuspends                      111                       # Number of times Execute suspended instruction fetching
system.cpu0.numWorkItemsCompleted                   0                       # number of work items this cpu completed
system.cpu0.numWorkItemsStarted                     0                       # number of work items this cpu started
system.cpu0.op_class_0::No_OpClass                  0      0.00%      0.00% # Class of committed instruction
system.cpu0.op_class_0::IntAlu                 414400     64.96%     64.96% # Class of committed instruction
system.cpu0.op_class_0::IntMult                   389      0.06%     65.03% # Class of committed instruction
system.cpu0.op_class_0::IntDiv                     47      0.01%     65.03% # Class of committed instruction
system.cpu0.op_class_0::FloatAdd                    0      0.00%     65.03% # Class of committed instruction
system.cpu0.op_class_0::FloatCmp                    0      0.00%     65.03% # Class of committed instruction
system.cpu0.op_class_0::FloatCvt                    0      0.00%     65.03% # Class of committed instruction
system.cpu0.op_class_0::FloatMult                   0      0.00%     65.03% # Class of committed instruction
system.cpu0.op_class_0::FloatMultAcc                0      0.00%     65.03% # Class of committed instruction
system.cpu0.op_class_0::FloatDiv                    0      0.00%     65.03% # Class of committed instruction
system.cpu0.op_class_0::FloatMisc                   0      0.00%     65.03% # Class of committed instruction
system.cpu0.op_class_0::FloatSqrt                   0      0.00%     65.03% # Class of committed instruction
system.cpu0.op_class_0::SimdAdd                     0      0.00%     65.03% # Class of committed instruction
system.cpu0.op_class_0::SimdAddAcc                  0      0.00%     65.03% # Class of committed instruction
system.cpu0.op_class_0::SimdAlu                     0      0.00%     65.03% # Class of committed instruction
system.cpu0.op_class_0::SimdCmp                     0      0.00%     65.03% # Class of committed instruction
system.cpu0.op_class_0::SimdCvt                     0      0.00%     65.03% # Class of committed instruction
system.cpu0.op_class_0::SimdMisc                    0      0.00%     65.03% # Class of committed instruction
system.cpu0.op_class_0::SimdMult                    0      0.00%     65.03% # Class of committed instruction
system.cpu0.op_class_0::SimdMultAcc                 0      0.00%     65.03% # Class of committed instruction
system.cpu0.op_class_0::SimdShift                   0      0.00%     65.03% # Class of committed instruction
system.cpu0.op_class_0::SimdShiftAcc                0      0.00%     65.03% # Class of committed instruction
system.cpu0.op_class_0::SimdDiv                     0      0.00%     65.03% # Class of committed instruction
system.cpu0.op_class_0::SimdSqrt                    0      0.00%     65.03% # Class of committed instruction
system.cpu0.op_class_0::SimdFloatAdd                0      0.00%     65.03% # Class of committed instruction
system.cpu0.op_class_0::SimdFloatAlu                0      0.00%     65.03% # Class of committed instruction
system.cpu0.op_class_0::SimdFloatCmp                0      0.00%     65.03% # Class of committed instruction
system.cpu0.op_class_0::SimdFloatCvt                0      0.00%     65.03% # Class of committed instruction
system.cpu0.op_class_0::SimdFloatDiv                0      0.00%     65.03% # Class of committed instruction
system.cpu0.op_class_0::SimdFloatMisc               0      0.00%     65.03% # Class of committed instruction
system.cpu0.op_class_0::SimdFloatMult               0      0.00%     65.03% # Class of committed instruction
system.cpu0.op_class_0::SimdFloatMultAcc            0      0.00%     65.03% # Class of committed instruction
system.cpu0.op_class_0::SimdFloatSqrt               0      0.00%     65.03% # Class of committed instruction
system.cpu0.op_class_0::SimdReduceAdd               0      0.00%     65.03% # Class of committed instruction
system.cpu0.op_class_0::SimdReduceAlu               0      0.00%     65.03% # Class of committed instruction
system.cpu0.op_class_0::SimdReduceCmp               0      0.00%     65.03% # Class of committed instruction
system.cpu0.op_class_0::SimdFloatReduceAdd            0      0.00%     65.03% # Class of committed instruction
system.cpu0.op_class_0::SimdFloatReduceCmp            0      0.00%     65.03% # Class of committed instruction
system.cpu0.op_class_0::SimdAes                     0      0.00%     65.03% # Class of committed instruction
system.cpu0.op_class_0::SimdAesMix                  0      0.00%     65.03% # Class of committed instruction
system.cpu0.op_class_0::SimdSha1Hash                0      0.00%     65.03% # Class of committed instruction
system.cpu0.op_class_0::SimdSha1Hash2               0      0.00%     65.03% # Class of committed instruction
system.cpu0.op_class_0::SimdSha256Hash              0      0.00%     65.03% # Class of committed instruction
system.cpu0.op_class_0::SimdSha256Hash2             0      0.00%     65.03% # Class of committed instruction
system.cpu0.op_class_0::SimdShaSigma2               0      0.00%     65.03% # Class of committed instruction
system.cpu0.op_class_0::SimdShaSigma3               0      0.00%     65.03% # Class of committed instruction
system.cpu0.op_class_0::SimdPredAlu                 0      0.00%     65.03% # Class of committed instruction
system.cpu0.op_class_0::MemRead                113342     17.77%     82.80% # Class of committed instruction
system.cpu0.op_class_0::MemWrite               109713     17.20%    100.00% # Class of committed instruction
system.cpu0.op_class_0::FloatMemRead                0      0.00%    100.00% # Class of committed instruction
system.cpu0.op_class_0::FloatMemWrite               0      0.00%    100.00% # Class of committed instruction
system.cpu0.op_class_0::IprAccess                   0      0.00%    100.00% # Class of committed instruction
system.cpu0.op_class_0::InstPrefetch                0      0.00%    100.00% # Class of committed instruction
system.cpu0.op_class_0::total                  637891                       # Class of committed instruction
system.cpu0.quiesceCycles                    59189869                       # Total number of cycles that CPU has spent quiesced or waiting for an interrupt
system.cpu0.tickCycles                         886351                       # Number of cycles that the object actually ticked
system.cpu1.branchPred.BTBCorrect                   0                       # Number of correct BTB predictions (this stat may not work properly.
system.cpu1.branchPred.BTBHitPct            16.946616                       # BTB Hit Percentage
system.cpu1.branchPred.BTBHits                   8606                       # Number of BTB hits
system.cpu1.branchPred.BTBLookups               50783                       # Number of BTB lookups
system.cpu1.branchPred.RASInCorrect               982                       # Number of incorrect RAS predictions.
system.cpu1.branchPred.condIncorrect             9804                       # Number of conditional branches incorrect
system.cpu1.branchPred.condPredicted            31788                       # Number of conditional branches predicted
system.cpu1.branchPred.indirectHits               744                       # Number of indirect target hits.
system.cpu1.branchPred.indirectLookups           1171                       # Number of indirect predictor lookups.
system.cpu1.branchPred.indirectMisses             427                       # Number of indirect misses.
system.cpu1.branchPred.lookups                  66840                       # Number of BP lookups
system.cpu1.branchPred.usedRAS                  14580                       # Number of times the RAS was used to get a target.
system.cpu1.branchPredindirectMispredicted          138                       # Number of mispredicted indirect branches.
system.cpu1.committedInsts                     154279                       # Number of instructions committed
system.cpu1.committedOps                       196630                       # Number of ops (including micro ops) committed
system.cpu1.cpi                              1.809968                       # CPI: cycles per instruction
system.cpu1.dcache.prefetcher.num_hwpf_issued           10                       # number of hwpf issued
system.cpu1.dcache.prefetcher.pfBufferHit            0                       # number of redundant prefetches already in prefetch queue
system.cpu1.dcache.prefetcher.pfIdentified           10                       # number of prefetch candidates identified
system.cpu1.dcache.prefetcher.pfInCache             0                       # number of redundant prefetches already in cache/mshr dropped
system.cpu1.dcache.prefetcher.pfRemovedFull            0                       # number of prefetches dropped due to prefetch queue size
system.cpu1.dcache.prefetcher.pfSpanPage           10                       # number of prefetches that crossed the page
system.cpu1.discardedOps                        31581                       # Number of ops (including micro ops) which were discarded before commit
system.cpu1.dtb.accesses                        75141                       # DTB accesses
system.cpu1.dtb.align_faults                        0                       # Number of TLB faults due to alignment restrictions
system.cpu1.dtb.domain_faults                       0                       # Number of TLB faults due to domain restrictions
system.cpu1.dtb.flush_entries                       0                       # Number of entries that have been flushed from TLB
system.cpu1.dtb.flush_tlb                           0                       # Number of times complete TLB was flushed
system.cpu1.dtb.flush_tlb_asid                      0                       # Number of times TLB was flushed by ASID
system.cpu1.dtb.flush_tlb_mva                       0                       # Number of times TLB was flushed by MVA
system.cpu1.dtb.flush_tlb_mva_asid                  0                       # Number of times TLB was flushed by MVA & ASID
system.cpu1.dtb.hits                            74662                       # DTB hits
system.cpu1.dtb.inst_accesses                       0                       # ITB inst accesses
system.cpu1.dtb.inst_hits                           0                       # ITB inst hits
system.cpu1.dtb.inst_misses                         0                       # ITB inst misses
system.cpu1.dtb.misses                            479                       # DTB misses
system.cpu1.dtb.perms_faults                       11                       # Number of TLB faults due to permissions restrictions
system.cpu1.dtb.prefetch_faults                    11                       # Number of TLB faults due to prefetch
system.cpu1.dtb.read_accesses                   41740                       # DTB read accesses
system.cpu1.dtb.read_hits                       41337                       # DTB read hits
system.cpu1.dtb.read_misses                       403                       # DTB read misses
system.cpu1.dtb.stage2_mmu.stage2_tlb.accesses            0                       # DTB accesses
system.cpu1.dtb.stage2_mmu.stage2_tlb.align_faults            0                       # Number of TLB faults due to alignment restrictions
system.cpu1.dtb.stage2_mmu.stage2_tlb.domain_faults            0                       # Number of TLB faults due to domain restrictions
system.cpu1.dtb.stage2_mmu.stage2_tlb.flush_entries            0                       # Number of entries that have been flushed from TLB
system.cpu1.dtb.stage2_mmu.stage2_tlb.flush_tlb            0                       # Number of times complete TLB was flushed
system.cpu1.dtb.stage2_mmu.stage2_tlb.flush_tlb_asid            0                       # Number of times TLB was flushed by ASID
system.cpu1.dtb.stage2_mmu.stage2_tlb.flush_tlb_mva            0                       # Number of times TLB was flushed by MVA
system.cpu1.dtb.stage2_mmu.stage2_tlb.flush_tlb_mva_asid            0                       # Number of times TLB was flushed by MVA & ASID
system.cpu1.dtb.stage2_mmu.stage2_tlb.hits            0                       # DTB hits
system.cpu1.dtb.stage2_mmu.stage2_tlb.inst_accesses            0                       # ITB inst accesses
system.cpu1.dtb.stage2_mmu.stage2_tlb.inst_hits            0                       # ITB inst hits
system.cpu1.dtb.stage2_mmu.stage2_tlb.inst_misses            0                       # ITB inst misses
system.cpu1.dtb.stage2_mmu.stage2_tlb.misses            0                       # DTB misses
system.cpu1.dtb.stage2_mmu.stage2_tlb.perms_faults            0                       # Number of TLB faults due to permissions restrictions
system.cpu1.dtb.stage2_mmu.stage2_tlb.prefetch_faults            0                       # Number of TLB faults due to prefetch
system.cpu1.dtb.stage2_mmu.stage2_tlb.read_accesses            0                       # DTB read accesses
system.cpu1.dtb.stage2_mmu.stage2_tlb.read_hits            0                       # DTB read hits
system.cpu1.dtb.stage2_mmu.stage2_tlb.read_misses            0                       # DTB read misses
system.cpu1.dtb.stage2_mmu.stage2_tlb.walker.walkRequestOrigin_Requested::Data            0                       # Table walker requests started/completed, data/inst
system.cpu1.dtb.stage2_mmu.stage2_tlb.walker.walkRequestOrigin_Requested::Inst            0                       # Table walker requests started/completed, data/inst
system.cpu1.dtb.stage2_mmu.stage2_tlb.walker.walkRequestOrigin_Requested::total            0                       # Table walker requests started/completed, data/inst
system.cpu1.dtb.stage2_mmu.stage2_tlb.walker.walkRequestOrigin_Completed::Data            0                       # Table walker requests started/completed, data/inst
system.cpu1.dtb.stage2_mmu.stage2_tlb.walker.walkRequestOrigin_Completed::Inst            0                       # Table walker requests started/completed, data/inst
system.cpu1.dtb.stage2_mmu.stage2_tlb.walker.walkRequestOrigin_Completed::total            0                       # Table walker requests started/completed, data/inst
system.cpu1.dtb.stage2_mmu.stage2_tlb.walker.walkRequestOrigin::total            0                       # Table walker requests started/completed, data/inst
system.cpu1.dtb.stage2_mmu.stage2_tlb.walker.walks            0                       # Table walker walks requested
system.cpu1.dtb.stage2_mmu.stage2_tlb.write_accesses            0                       # DTB write accesses
system.cpu1.dtb.stage2_mmu.stage2_tlb.write_hits            0                       # DTB write hits
system.cpu1.dtb.stage2_mmu.stage2_tlb.write_misses            0                       # DTB write misses
system.cpu1.dtb.walker.walkCompletionTime::samples            8                       # Table walker service (enqueue to completion) latency
system.cpu1.dtb.walker.walkCompletionTime::mean 23651.250000                       # Table walker service (enqueue to completion) latency
system.cpu1.dtb.walker.walkCompletionTime::gmean 22849.038341                       # Table walker service (enqueue to completion) latency
system.cpu1.dtb.walker.walkCompletionTime::stdev  5416.694610                       # Table walker service (enqueue to completion) latency
system.cpu1.dtb.walker.walkCompletionTime::10240-12287            1     12.50%     12.50% # Table walker service (enqueue to completion) latency
system.cpu1.dtb.walker.walkCompletionTime::22528-24575            4     50.00%     62.50% # Table walker service (enqueue to completion) latency
system.cpu1.dtb.walker.walkCompletionTime::26624-28671            3     37.50%    100.00% # Table walker service (enqueue to completion) latency
system.cpu1.dtb.walker.walkCompletionTime::total            8                       # Table walker service (enqueue to completion) latency
system.cpu1.dtb.walker.walkPageSizes::4K            8    100.00%    100.00% # Table walker page sizes translated
system.cpu1.dtb.walker.walkPageSizes::total            8                       # Table walker page sizes translated
system.cpu1.dtb.walker.walkRequestOrigin_Requested::Data          479                       # Table walker requests started/completed, data/inst
system.cpu1.dtb.walker.walkRequestOrigin_Requested::Inst            0                       # Table walker requests started/completed, data/inst
system.cpu1.dtb.walker.walkRequestOrigin_Requested::total          479                       # Table walker requests started/completed, data/inst
system.cpu1.dtb.walker.walkRequestOrigin_Completed::Data            8                       # Table walker requests started/completed, data/inst
system.cpu1.dtb.walker.walkRequestOrigin_Completed::Inst            0                       # Table walker requests started/completed, data/inst
system.cpu1.dtb.walker.walkRequestOrigin_Completed::total            8                       # Table walker requests started/completed, data/inst
system.cpu1.dtb.walker.walkRequestOrigin::total          487                       # Table walker requests started/completed, data/inst
system.cpu1.dtb.walker.walkWaitTime::samples          479                       # Table walker wait (enqueue to first request) latency
system.cpu1.dtb.walker.walkWaitTime::0            479    100.00%    100.00% # Table walker wait (enqueue to first request) latency
system.cpu1.dtb.walker.walkWaitTime::total          479                       # Table walker wait (enqueue to first request) latency
system.cpu1.dtb.walker.walks                      479                       # Table walker walks requested
system.cpu1.dtb.walker.walksLong                  479                       # Table walker walks initiated with long descriptors
system.cpu1.dtb.walker.walksLongTerminationLevel::Level3            8                       # Level at which table walker walks with long descriptors terminate
system.cpu1.dtb.write_accesses                  33401                       # DTB write accesses
system.cpu1.dtb.write_hits                      33325                       # DTB write hits
system.cpu1.dtb.write_misses                       76                       # DTB write misses
system.cpu1.fetch2.amo_instructions                 0                       # Number of memory atomic instructions successfully decoded
system.cpu1.fetch2.fp_instructions                  0                       # Number of floating point instructions successfully decoded
system.cpu1.fetch2.int_instructions            169206                       # Number of integer instructions successfully decoded
system.cpu1.fetch2.load_instructions            48727                       # Number of memory load instructions successfully decoded
system.cpu1.fetch2.store_instructions           16134                       # Number of memory store instructions successfully decoded
system.cpu1.fetch2.vec_instructions                 0                       # Number of SIMD instructions successfully decoded
system.cpu1.idleCycles                           3149                       # Total number of cycles that the object has spent stopped
system.cpu1.ipc                              0.552496                       # IPC: instructions per cycle
system.cpu1.itb.accesses                        92308                       # DTB accesses
system.cpu1.itb.align_faults                        0                       # Number of TLB faults due to alignment restrictions
system.cpu1.itb.domain_faults                       0                       # Number of TLB faults due to domain restrictions
system.cpu1.itb.flush_entries                       0                       # Number of entries that have been flushed from TLB
system.cpu1.itb.flush_tlb                           0                       # Number of times complete TLB was flushed
system.cpu1.itb.flush_tlb_asid                      0                       # Number of times TLB was flushed by ASID
system.cpu1.itb.flush_tlb_mva                       0                       # Number of times TLB was flushed by MVA
system.cpu1.itb.flush_tlb_mva_asid                  0                       # Number of times TLB was flushed by MVA & ASID
system.cpu1.itb.hits                            92301                       # DTB hits
system.cpu1.itb.inst_accesses                   92308                       # ITB inst accesses
system.cpu1.itb.inst_hits                       92301                       # ITB inst hits
system.cpu1.itb.inst_misses                         7                       # ITB inst misses
system.cpu1.itb.misses                              7                       # DTB misses
system.cpu1.itb.perms_faults                        0                       # Number of TLB faults due to permissions restrictions
system.cpu1.itb.prefetch_faults                     0                       # Number of TLB faults due to prefetch
system.cpu1.itb.read_accesses                       0                       # DTB read accesses
system.cpu1.itb.read_hits                           0                       # DTB read hits
system.cpu1.itb.read_misses                         0                       # DTB read misses
system.cpu1.itb.stage2_mmu.stage2_tlb.accesses            0                       # DTB accesses
system.cpu1.itb.stage2_mmu.stage2_tlb.align_faults            0                       # Number of TLB faults due to alignment restrictions
system.cpu1.itb.stage2_mmu.stage2_tlb.domain_faults            0                       # Number of TLB faults due to domain restrictions
system.cpu1.itb.stage2_mmu.stage2_tlb.flush_entries            0                       # Number of entries that have been flushed from TLB
system.cpu1.itb.stage2_mmu.stage2_tlb.flush_tlb            0                       # Number of times complete TLB was flushed
system.cpu1.itb.stage2_mmu.stage2_tlb.flush_tlb_asid            0                       # Number of times TLB was flushed by ASID
system.cpu1.itb.stage2_mmu.stage2_tlb.flush_tlb_mva            0                       # Number of times TLB was flushed by MVA
system.cpu1.itb.stage2_mmu.stage2_tlb.flush_tlb_mva_asid            0                       # Number of times TLB was flushed by MVA & ASID
system.cpu1.itb.stage2_mmu.stage2_tlb.hits            0                       # DTB hits
system.cpu1.itb.stage2_mmu.stage2_tlb.inst_accesses            0                       # ITB inst accesses
system.cpu1.itb.stage2_mmu.stage2_tlb.inst_hits            0                       # ITB inst hits
system.cpu1.itb.stage2_mmu.stage2_tlb.inst_misses            0                       # ITB inst misses
system.cpu1.itb.stage2_mmu.stage2_tlb.misses            0                       # DTB misses
system.cpu1.itb.stage2_mmu.stage2_tlb.perms_faults            0                       # Number of TLB faults due to permissions restrictions
system.cpu1.itb.stage2_mmu.stage2_tlb.prefetch_faults            0                       # Number of TLB faults due to prefetch
system.cpu1.itb.stage2_mmu.stage2_tlb.read_accesses            0                       # DTB read accesses
system.cpu1.itb.stage2_mmu.stage2_tlb.read_hits            0                       # DTB read hits
system.cpu1.itb.stage2_mmu.stage2_tlb.read_misses            0                       # DTB read misses
system.cpu1.itb.stage2_mmu.stage2_tlb.walker.walkRequestOrigin_Requested::Data            0                       # Table walker requests started/completed, data/inst
system.cpu1.itb.stage2_mmu.stage2_tlb.walker.walkRequestOrigin_Requested::Inst            0                       # Table walker requests started/completed, data/inst
system.cpu1.itb.stage2_mmu.stage2_tlb.walker.walkRequestOrigin_Requested::total            0                       # Table walker requests started/completed, data/inst
system.cpu1.itb.stage2_mmu.stage2_tlb.walker.walkRequestOrigin_Completed::Data            0                       # Table walker requests started/completed, data/inst
system.cpu1.itb.stage2_mmu.stage2_tlb.walker.walkRequestOrigin_Completed::Inst            0                       # Table walker requests started/completed, data/inst
system.cpu1.itb.stage2_mmu.stage2_tlb.walker.walkRequestOrigin_Completed::total            0                       # Table walker requests started/completed, data/inst
system.cpu1.itb.stage2_mmu.stage2_tlb.walker.walkRequestOrigin::total            0                       # Table walker requests started/completed, data/inst
system.cpu1.itb.stage2_mmu.stage2_tlb.walker.walks            0                       # Table walker walks requested
system.cpu1.itb.stage2_mmu.stage2_tlb.write_accesses            0                       # DTB write accesses
system.cpu1.itb.stage2_mmu.stage2_tlb.write_hits            0                       # DTB write hits
system.cpu1.itb.stage2_mmu.stage2_tlb.write_misses            0                       # DTB write misses
system.cpu1.itb.walker.walkCompletionTime::samples            7                       # Table walker service (enqueue to completion) latency
system.cpu1.itb.walker.walkCompletionTime::mean        19278                       # Table walker service (enqueue to completion) latency
system.cpu1.itb.walker.walkCompletionTime::gmean 17646.942457                       # Table walker service (enqueue to completion) latency
system.cpu1.itb.walker.walkCompletionTime::stdev  8098.996975                       # Table walker service (enqueue to completion) latency
system.cpu1.itb.walker.walkCompletionTime::10240-12287            3     42.86%     42.86% # Table walker service (enqueue to completion) latency
system.cpu1.itb.walker.walkCompletionTime::22528-24575            2     28.57%     71.43% # Table walker service (enqueue to completion) latency
system.cpu1.itb.walker.walkCompletionTime::26624-28671            2     28.57%    100.00% # Table walker service (enqueue to completion) latency
system.cpu1.itb.walker.walkCompletionTime::total            7                       # Table walker service (enqueue to completion) latency
system.cpu1.itb.walker.walkPageSizes::4K            7    100.00%    100.00% # Table walker page sizes translated
system.cpu1.itb.walker.walkPageSizes::total            7                       # Table walker page sizes translated
system.cpu1.itb.walker.walkRequestOrigin_Requested::Data            0                       # Table walker requests started/completed, data/inst
system.cpu1.itb.walker.walkRequestOrigin_Requested::Inst            7                       # Table walker requests started/completed, data/inst
system.cpu1.itb.walker.walkRequestOrigin_Requested::total            7                       # Table walker requests started/completed, data/inst
system.cpu1.itb.walker.walkRequestOrigin_Completed::Data            0                       # Table walker requests started/completed, data/inst
system.cpu1.itb.walker.walkRequestOrigin_Completed::Inst            7                       # Table walker requests started/completed, data/inst
system.cpu1.itb.walker.walkRequestOrigin_Completed::total            7                       # Table walker requests started/completed, data/inst
system.cpu1.itb.walker.walkRequestOrigin::total           14                       # Table walker requests started/completed, data/inst
system.cpu1.itb.walker.walkWaitTime::samples            7                       # Table walker wait (enqueue to first request) latency
system.cpu1.itb.walker.walkWaitTime::0              7    100.00%    100.00% # Table walker wait (enqueue to first request) latency
system.cpu1.itb.walker.walkWaitTime::total            7                       # Table walker wait (enqueue to first request) latency
system.cpu1.itb.walker.walks                        7                       # Table walker walks requested
system.cpu1.itb.walker.walksLong                    7                       # Table walker walks initiated with long descriptors
system.cpu1.itb.walker.walksLongTerminationLevel::Level3            7                       # Level at which table walker walks with long descriptors terminate
system.cpu1.itb.write_accesses                      0                       # DTB write accesses
system.cpu1.itb.write_hits                          0                       # DTB write hits
system.cpu1.itb.write_misses                        0                       # DTB write misses
system.cpu1.kern.inst.arm                           0                       # number of arm instructions executed
system.cpu1.kern.inst.quiesce                      21                       # number of quiesce instructions executed
system.cpu1.numCycles                          279240                       # number of cpu cycles simulated
system.cpu1.numFetchSuspends                       21                       # Number of times Execute suspended instruction fetching
system.cpu1.numWorkItemsCompleted                   0                       # number of work items this cpu completed
system.cpu1.numWorkItemsStarted                     0                       # number of work items this cpu started
system.cpu1.op_class_0::No_OpClass                  0      0.00%      0.00% # Class of committed instruction
system.cpu1.op_class_0::IntAlu                 127465     64.82%     64.82% # Class of committed instruction
system.cpu1.op_class_0::IntMult                   355      0.18%     65.01% # Class of committed instruction
system.cpu1.op_class_0::IntDiv                     98      0.05%     65.06% # Class of committed instruction
system.cpu1.op_class_0::FloatAdd                    0      0.00%     65.06% # Class of committed instruction
system.cpu1.op_class_0::FloatCmp                    0      0.00%     65.06% # Class of committed instruction
system.cpu1.op_class_0::FloatCvt                    0      0.00%     65.06% # Class of committed instruction
system.cpu1.op_class_0::FloatMult                   0      0.00%     65.06% # Class of committed instruction
system.cpu1.op_class_0::FloatMultAcc                0      0.00%     65.06% # Class of committed instruction
system.cpu1.op_class_0::FloatDiv                    0      0.00%     65.06% # Class of committed instruction
system.cpu1.op_class_0::FloatMisc                   0      0.00%     65.06% # Class of committed instruction
system.cpu1.op_class_0::FloatSqrt                   0      0.00%     65.06% # Class of committed instruction
system.cpu1.op_class_0::SimdAdd                     0      0.00%     65.06% # Class of committed instruction
system.cpu1.op_class_0::SimdAddAcc                  0      0.00%     65.06% # Class of committed instruction
system.cpu1.op_class_0::SimdAlu                     0      0.00%     65.06% # Class of committed instruction
system.cpu1.op_class_0::SimdCmp                     0      0.00%     65.06% # Class of committed instruction
system.cpu1.op_class_0::SimdCvt                     0      0.00%     65.06% # Class of committed instruction
system.cpu1.op_class_0::SimdMisc                    0      0.00%     65.06% # Class of committed instruction
system.cpu1.op_class_0::SimdMult                    0      0.00%     65.06% # Class of committed instruction
system.cpu1.op_class_0::SimdMultAcc                 0      0.00%     65.06% # Class of committed instruction
system.cpu1.op_class_0::SimdShift                   0      0.00%     65.06% # Class of committed instruction
system.cpu1.op_class_0::SimdShiftAcc                0      0.00%     65.06% # Class of committed instruction
system.cpu1.op_class_0::SimdDiv                     0      0.00%     65.06% # Class of committed instruction
system.cpu1.op_class_0::SimdSqrt                    0      0.00%     65.06% # Class of committed instruction
system.cpu1.op_class_0::SimdFloatAdd                0      0.00%     65.06% # Class of committed instruction
system.cpu1.op_class_0::SimdFloatAlu                0      0.00%     65.06% # Class of committed instruction
system.cpu1.op_class_0::SimdFloatCmp                0      0.00%     65.06% # Class of committed instruction
system.cpu1.op_class_0::SimdFloatCvt                0      0.00%     65.06% # Class of committed instruction
system.cpu1.op_class_0::SimdFloatDiv                0      0.00%     65.06% # Class of committed instruction
system.cpu1.op_class_0::SimdFloatMisc               0      0.00%     65.06% # Class of committed instruction
system.cpu1.op_class_0::SimdFloatMult               0      0.00%     65.06% # Class of committed instruction
system.cpu1.op_class_0::SimdFloatMultAcc            0      0.00%     65.06% # Class of committed instruction
system.cpu1.op_class_0::SimdFloatSqrt               0      0.00%     65.06% # Class of committed instruction
system.cpu1.op_class_0::SimdReduceAdd               0      0.00%     65.06% # Class of committed instruction
system.cpu1.op_class_0::SimdReduceAlu               0      0.00%     65.06% # Class of committed instruction
system.cpu1.op_class_0::SimdReduceCmp               0      0.00%     65.06% # Class of committed instruction
system.cpu1.op_class_0::SimdFloatReduceAdd            0      0.00%     65.06% # Class of committed instruction
system.cpu1.op_class_0::SimdFloatReduceCmp            0      0.00%     65.06% # Class of committed instruction
system.cpu1.op_class_0::SimdAes                     0      0.00%     65.06% # Class of committed instruction
system.cpu1.op_class_0::SimdAesMix                  0      0.00%     65.06% # Class of committed instruction
system.cpu1.op_class_0::SimdSha1Hash                0      0.00%     65.06% # Class of committed instruction
system.cpu1.op_class_0::SimdSha1Hash2               0      0.00%     65.06% # Class of committed instruction
system.cpu1.op_class_0::SimdSha256Hash              0      0.00%     65.06% # Class of committed instruction
system.cpu1.op_class_0::SimdSha256Hash2             0      0.00%     65.06% # Class of committed instruction
system.cpu1.op_class_0::SimdShaSigma2               0      0.00%     65.06% # Class of committed instruction
system.cpu1.op_class_0::SimdShaSigma3               0      0.00%     65.06% # Class of committed instruction
system.cpu1.op_class_0::SimdPredAlu                 0      0.00%     65.06% # Class of committed instruction
system.cpu1.op_class_0::MemRead                 35881     18.25%     83.30% # Class of committed instruction
system.cpu1.op_class_0::MemWrite                32831     16.70%    100.00% # Class of committed instruction
system.cpu1.op_class_0::FloatMemRead                0      0.00%    100.00% # Class of committed instruction
system.cpu1.op_class_0::FloatMemWrite               0      0.00%    100.00% # Class of committed instruction
system.cpu1.op_class_0::IprAccess                   0      0.00%    100.00% # Class of committed instruction
system.cpu1.op_class_0::InstPrefetch                0      0.00%    100.00% # Class of committed instruction
system.cpu1.op_class_0::total                  196630                       # Class of committed instruction
system.cpu1.quiesceCycles                    66966142                       # Total number of cycles that CPU has spent quiesced or waiting for an interrupt
system.cpu1.tickCycles                         276091                       # Number of cycles that the object actually ticked
system.cpu2.branchPred.BTBCorrect                   0                       # Number of correct BTB predictions (this stat may not work properly.
system.cpu2.branchPred.BTBHitPct            28.589096                       # BTB Hit Percentage
system.cpu2.branchPred.BTBHits                1971460                       # Number of BTB hits
system.cpu2.branchPred.BTBLookups             6895846                       # Number of BTB lookups
system.cpu2.branchPred.RASInCorrect             49000                       # Number of incorrect RAS predictions.
system.cpu2.branchPred.condIncorrect          1058970                       # Number of conditional branches incorrect
system.cpu2.branchPred.condPredicted          5067629                       # Number of conditional branches predicted
system.cpu2.branchPred.indirectHits             28861                       # Number of indirect target hits.
system.cpu2.branchPred.indirectLookups          40394                       # Number of indirect predictor lookups.
system.cpu2.branchPred.indirectMisses           11533                       # Number of indirect misses.
system.cpu2.branchPred.lookups                8653610                       # Number of BP lookups
system.cpu2.branchPred.usedRAS                1406182                       # Number of times the RAS was used to get a target.
system.cpu2.branchPredindirectMispredicted         2164                       # Number of mispredicted indirect branches.
system.cpu2.committedInsts                   24504868                       # Number of instructions committed
system.cpu2.committedOps                     30314139                       # Number of ops (including micro ops) committed
system.cpu2.cpi                              2.544620                       # CPI: cycles per instruction
system.cpu2.dcache.prefetcher.num_hwpf_issued          456                       # number of hwpf issued
system.cpu2.dcache.prefetcher.pfBufferHit          519                       # number of redundant prefetches already in prefetch queue
system.cpu2.dcache.prefetcher.pfIdentified         1632                       # number of prefetch candidates identified
system.cpu2.dcache.prefetcher.pfInCache             0                       # number of redundant prefetches already in cache/mshr dropped
system.cpu2.dcache.prefetcher.pfRemovedFull          111                       # number of prefetches dropped due to prefetch queue size
system.cpu2.dcache.prefetcher.pfSpanPage           92                       # number of prefetches that crossed the page
system.cpu2.discardedOps                      6218764                       # Number of ops (including micro ops) which were discarded before commit
system.cpu2.dtb.accesses                      8001515                       # DTB accesses
system.cpu2.dtb.align_faults                        0                       # Number of TLB faults due to alignment restrictions
system.cpu2.dtb.domain_faults                       0                       # Number of TLB faults due to domain restrictions
system.cpu2.dtb.flush_entries                       0                       # Number of entries that have been flushed from TLB
system.cpu2.dtb.flush_tlb                           0                       # Number of times complete TLB was flushed
system.cpu2.dtb.flush_tlb_asid                      0                       # Number of times TLB was flushed by ASID
system.cpu2.dtb.flush_tlb_mva                       0                       # Number of times TLB was flushed by MVA
system.cpu2.dtb.flush_tlb_mva_asid                  0                       # Number of times TLB was flushed by MVA & ASID
system.cpu2.dtb.hits                          7986663                       # DTB hits
system.cpu2.dtb.inst_accesses                       0                       # ITB inst accesses
system.cpu2.dtb.inst_hits                           0                       # ITB inst hits
system.cpu2.dtb.inst_misses                         0                       # ITB inst misses
system.cpu2.dtb.misses                          14852                       # DTB misses
system.cpu2.dtb.perms_faults                      196                       # Number of TLB faults due to permissions restrictions
system.cpu2.dtb.prefetch_faults                   107                       # Number of TLB faults due to prefetch
system.cpu2.dtb.read_accesses                 4150388                       # DTB read accesses
system.cpu2.dtb.read_hits                     4137159                       # DTB read hits
system.cpu2.dtb.read_misses                     13229                       # DTB read misses
system.cpu2.dtb.stage2_mmu.stage2_tlb.accesses            0                       # DTB accesses
system.cpu2.dtb.stage2_mmu.stage2_tlb.align_faults            0                       # Number of TLB faults due to alignment restrictions
system.cpu2.dtb.stage2_mmu.stage2_tlb.domain_faults            0                       # Number of TLB faults due to domain restrictions
system.cpu2.dtb.stage2_mmu.stage2_tlb.flush_entries            0                       # Number of entries that have been flushed from TLB
system.cpu2.dtb.stage2_mmu.stage2_tlb.flush_tlb            0                       # Number of times complete TLB was flushed
system.cpu2.dtb.stage2_mmu.stage2_tlb.flush_tlb_asid            0                       # Number of times TLB was flushed by ASID
system.cpu2.dtb.stage2_mmu.stage2_tlb.flush_tlb_mva            0                       # Number of times TLB was flushed by MVA
system.cpu2.dtb.stage2_mmu.stage2_tlb.flush_tlb_mva_asid            0                       # Number of times TLB was flushed by MVA & ASID
system.cpu2.dtb.stage2_mmu.stage2_tlb.hits            0                       # DTB hits
system.cpu2.dtb.stage2_mmu.stage2_tlb.inst_accesses            0                       # ITB inst accesses
system.cpu2.dtb.stage2_mmu.stage2_tlb.inst_hits            0                       # ITB inst hits
system.cpu2.dtb.stage2_mmu.stage2_tlb.inst_misses            0                       # ITB inst misses
system.cpu2.dtb.stage2_mmu.stage2_tlb.misses            0                       # DTB misses
system.cpu2.dtb.stage2_mmu.stage2_tlb.perms_faults            0                       # Number of TLB faults due to permissions restrictions
system.cpu2.dtb.stage2_mmu.stage2_tlb.prefetch_faults            0                       # Number of TLB faults due to prefetch
system.cpu2.dtb.stage2_mmu.stage2_tlb.read_accesses            0                       # DTB read accesses
system.cpu2.dtb.stage2_mmu.stage2_tlb.read_hits            0                       # DTB read hits
system.cpu2.dtb.stage2_mmu.stage2_tlb.read_misses            0                       # DTB read misses
system.cpu2.dtb.stage2_mmu.stage2_tlb.walker.walkRequestOrigin_Requested::Data            0                       # Table walker requests started/completed, data/inst
system.cpu2.dtb.stage2_mmu.stage2_tlb.walker.walkRequestOrigin_Requested::Inst            0                       # Table walker requests started/completed, data/inst
system.cpu2.dtb.stage2_mmu.stage2_tlb.walker.walkRequestOrigin_Requested::total            0                       # Table walker requests started/completed, data/inst
system.cpu2.dtb.stage2_mmu.stage2_tlb.walker.walkRequestOrigin_Completed::Data            0                       # Table walker requests started/completed, data/inst
system.cpu2.dtb.stage2_mmu.stage2_tlb.walker.walkRequestOrigin_Completed::Inst            0                       # Table walker requests started/completed, data/inst
system.cpu2.dtb.stage2_mmu.stage2_tlb.walker.walkRequestOrigin_Completed::total            0                       # Table walker requests started/completed, data/inst
system.cpu2.dtb.stage2_mmu.stage2_tlb.walker.walkRequestOrigin::total            0                       # Table walker requests started/completed, data/inst
system.cpu2.dtb.stage2_mmu.stage2_tlb.walker.walks            0                       # Table walker walks requested
system.cpu2.dtb.stage2_mmu.stage2_tlb.write_accesses            0                       # DTB write accesses
system.cpu2.dtb.stage2_mmu.stage2_tlb.write_hits            0                       # DTB write hits
system.cpu2.dtb.stage2_mmu.stage2_tlb.write_misses            0                       # DTB write misses
system.cpu2.dtb.walker.walkCompletionTime::samples          949                       # Table walker service (enqueue to completion) latency
system.cpu2.dtb.walker.walkCompletionTime::mean 13765.378293                       # Table walker service (enqueue to completion) latency
system.cpu2.dtb.walker.walkCompletionTime::gmean 12994.191601                       # Table walker service (enqueue to completion) latency
system.cpu2.dtb.walker.walkCompletionTime::stdev 13636.554557                       # Table walker service (enqueue to completion) latency
system.cpu2.dtb.walker.walkCompletionTime::0-32767          939     98.95%     98.95% # Table walker service (enqueue to completion) latency
system.cpu2.dtb.walker.walkCompletionTime::32768-65535            9      0.95%     99.89% # Table walker service (enqueue to completion) latency
system.cpu2.dtb.walker.walkCompletionTime::393216-425983            1      0.11%    100.00% # Table walker service (enqueue to completion) latency
system.cpu2.dtb.walker.walkCompletionTime::total          949                       # Table walker service (enqueue to completion) latency
system.cpu2.dtb.walker.walkPageSizes::4K          941     99.16%     99.16% # Table walker page sizes translated
system.cpu2.dtb.walker.walkPageSizes::2M            8      0.84%    100.00% # Table walker page sizes translated
system.cpu2.dtb.walker.walkPageSizes::total          949                       # Table walker page sizes translated
system.cpu2.dtb.walker.walkRequestOrigin_Requested::Data        14852                       # Table walker requests started/completed, data/inst
system.cpu2.dtb.walker.walkRequestOrigin_Requested::Inst            0                       # Table walker requests started/completed, data/inst
system.cpu2.dtb.walker.walkRequestOrigin_Requested::total        14852                       # Table walker requests started/completed, data/inst
system.cpu2.dtb.walker.walkRequestOrigin_Completed::Data          949                       # Table walker requests started/completed, data/inst
system.cpu2.dtb.walker.walkRequestOrigin_Completed::Inst            0                       # Table walker requests started/completed, data/inst
system.cpu2.dtb.walker.walkRequestOrigin_Completed::total          949                       # Table walker requests started/completed, data/inst
system.cpu2.dtb.walker.walkRequestOrigin::total        15801                       # Table walker requests started/completed, data/inst
system.cpu2.dtb.walker.walkWaitTime::samples        14852                       # Table walker wait (enqueue to first request) latency
system.cpu2.dtb.walker.walkWaitTime::0          14852    100.00%    100.00% # Table walker wait (enqueue to first request) latency
system.cpu2.dtb.walker.walkWaitTime::total        14852                       # Table walker wait (enqueue to first request) latency
system.cpu2.dtb.walker.walks                    14852                       # Table walker walks requested
system.cpu2.dtb.walker.walksLong                14852                       # Table walker walks initiated with long descriptors
system.cpu2.dtb.walker.walksLongTerminationLevel::Level2            8                       # Level at which table walker walks with long descriptors terminate
system.cpu2.dtb.walker.walksLongTerminationLevel::Level3          941                       # Level at which table walker walks with long descriptors terminate
system.cpu2.dtb.write_accesses                3851127                       # DTB write accesses
system.cpu2.dtb.write_hits                    3849504                       # DTB write hits
system.cpu2.dtb.write_misses                     1623                       # DTB write misses
system.cpu2.fetch2.amo_instructions                 0                       # Number of memory atomic instructions successfully decoded
system.cpu2.fetch2.fp_instructions                  0                       # Number of floating point instructions successfully decoded
system.cpu2.fetch2.int_instructions          38498692                       # Number of integer instructions successfully decoded
system.cpu2.fetch2.load_instructions          2965410                       # Number of memory load instructions successfully decoded
system.cpu2.fetch2.store_instructions         1199259                       # Number of memory store instructions successfully decoded
system.cpu2.fetch2.vec_instructions                 0                       # Number of SIMD instructions successfully decoded
system.cpu2.idleCycles                       18281444                       # Total number of cycles that the object has spent stopped
system.cpu2.ipc                              0.392986                       # IPC: instructions per cycle
system.cpu2.itb.accesses                     14041091                       # DTB accesses
system.cpu2.itb.align_faults                        0                       # Number of TLB faults due to alignment restrictions
system.cpu2.itb.domain_faults                       0                       # Number of TLB faults due to domain restrictions
system.cpu2.itb.flush_entries                       0                       # Number of entries that have been flushed from TLB
system.cpu2.itb.flush_tlb                           0                       # Number of times complete TLB was flushed
system.cpu2.itb.flush_tlb_asid                      0                       # Number of times TLB was flushed by ASID
system.cpu2.itb.flush_tlb_mva                       0                       # Number of times TLB was flushed by MVA
system.cpu2.itb.flush_tlb_mva_asid                  0                       # Number of times TLB was flushed by MVA & ASID
system.cpu2.itb.hits                         14035963                       # DTB hits
system.cpu2.itb.inst_accesses                14041091                       # ITB inst accesses
system.cpu2.itb.inst_hits                    14035963                       # ITB inst hits
system.cpu2.itb.inst_misses                      5128                       # ITB inst misses
system.cpu2.itb.misses                           5128                       # DTB misses
system.cpu2.itb.perms_faults                      555                       # Number of TLB faults due to permissions restrictions
system.cpu2.itb.prefetch_faults                     0                       # Number of TLB faults due to prefetch
system.cpu2.itb.read_accesses                       0                       # DTB read accesses
system.cpu2.itb.read_hits                           0                       # DTB read hits
system.cpu2.itb.read_misses                         0                       # DTB read misses
system.cpu2.itb.stage2_mmu.stage2_tlb.accesses            0                       # DTB accesses
system.cpu2.itb.stage2_mmu.stage2_tlb.align_faults            0                       # Number of TLB faults due to alignment restrictions
system.cpu2.itb.stage2_mmu.stage2_tlb.domain_faults            0                       # Number of TLB faults due to domain restrictions
system.cpu2.itb.stage2_mmu.stage2_tlb.flush_entries            0                       # Number of entries that have been flushed from TLB
system.cpu2.itb.stage2_mmu.stage2_tlb.flush_tlb            0                       # Number of times complete TLB was flushed
system.cpu2.itb.stage2_mmu.stage2_tlb.flush_tlb_asid            0                       # Number of times TLB was flushed by ASID
system.cpu2.itb.stage2_mmu.stage2_tlb.flush_tlb_mva            0                       # Number of times TLB was flushed by MVA
system.cpu2.itb.stage2_mmu.stage2_tlb.flush_tlb_mva_asid            0                       # Number of times TLB was flushed by MVA & ASID
system.cpu2.itb.stage2_mmu.stage2_tlb.hits            0                       # DTB hits
system.cpu2.itb.stage2_mmu.stage2_tlb.inst_accesses            0                       # ITB inst accesses
system.cpu2.itb.stage2_mmu.stage2_tlb.inst_hits            0                       # ITB inst hits
system.cpu2.itb.stage2_mmu.stage2_tlb.inst_misses            0                       # ITB inst misses
system.cpu2.itb.stage2_mmu.stage2_tlb.misses            0                       # DTB misses
system.cpu2.itb.stage2_mmu.stage2_tlb.perms_faults            0                       # Number of TLB faults due to permissions restrictions
system.cpu2.itb.stage2_mmu.stage2_tlb.prefetch_faults            0                       # Number of TLB faults due to prefetch
system.cpu2.itb.stage2_mmu.stage2_tlb.read_accesses            0                       # DTB read accesses
system.cpu2.itb.stage2_mmu.stage2_tlb.read_hits            0                       # DTB read hits
system.cpu2.itb.stage2_mmu.stage2_tlb.read_misses            0                       # DTB read misses
system.cpu2.itb.stage2_mmu.stage2_tlb.walker.walkRequestOrigin_Requested::Data            0                       # Table walker requests started/completed, data/inst
system.cpu2.itb.stage2_mmu.stage2_tlb.walker.walkRequestOrigin_Requested::Inst            0                       # Table walker requests started/completed, data/inst
system.cpu2.itb.stage2_mmu.stage2_tlb.walker.walkRequestOrigin_Requested::total            0                       # Table walker requests started/completed, data/inst
system.cpu2.itb.stage2_mmu.stage2_tlb.walker.walkRequestOrigin_Completed::Data            0                       # Table walker requests started/completed, data/inst
system.cpu2.itb.stage2_mmu.stage2_tlb.walker.walkRequestOrigin_Completed::Inst            0                       # Table walker requests started/completed, data/inst
system.cpu2.itb.stage2_mmu.stage2_tlb.walker.walkRequestOrigin_Completed::total            0                       # Table walker requests started/completed, data/inst
system.cpu2.itb.stage2_mmu.stage2_tlb.walker.walkRequestOrigin::total            0                       # Table walker requests started/completed, data/inst
system.cpu2.itb.stage2_mmu.stage2_tlb.walker.walks            0                       # Table walker walks requested
system.cpu2.itb.stage2_mmu.stage2_tlb.write_accesses            0                       # DTB write accesses
system.cpu2.itb.stage2_mmu.stage2_tlb.write_hits            0                       # DTB write hits
system.cpu2.itb.stage2_mmu.stage2_tlb.write_misses            0                       # DTB write misses
system.cpu2.itb.walker.walkCompletionTime::samples         3295                       # Table walker service (enqueue to completion) latency
system.cpu2.itb.walker.walkCompletionTime::mean 12365.743247                       # Table walker service (enqueue to completion) latency
system.cpu2.itb.walker.walkCompletionTime::gmean 11893.866064                       # Table walker service (enqueue to completion) latency
system.cpu2.itb.walker.walkCompletionTime::stdev  4742.275741                       # Table walker service (enqueue to completion) latency
system.cpu2.itb.walker.walkCompletionTime::8192-12287         2638     80.06%     80.06% # Table walker service (enqueue to completion) latency
system.cpu2.itb.walker.walkCompletionTime::12288-16383          493     14.96%     95.02% # Table walker service (enqueue to completion) latency
system.cpu2.itb.walker.walkCompletionTime::20480-24575           52      1.58%     96.60% # Table walker service (enqueue to completion) latency
system.cpu2.itb.walker.walkCompletionTime::24576-28671           97      2.94%     99.54% # Table walker service (enqueue to completion) latency
system.cpu2.itb.walker.walkCompletionTime::53248-57343            1      0.03%     99.58% # Table walker service (enqueue to completion) latency
system.cpu2.itb.walker.walkCompletionTime::57344-61439           14      0.42%    100.00% # Table walker service (enqueue to completion) latency
system.cpu2.itb.walker.walkCompletionTime::total         3295                       # Table walker service (enqueue to completion) latency
system.cpu2.itb.walker.walkPageSizes::4K         3295    100.00%    100.00% # Table walker page sizes translated
system.cpu2.itb.walker.walkPageSizes::total         3295                       # Table walker page sizes translated
system.cpu2.itb.walker.walkRequestOrigin_Requested::Data            0                       # Table walker requests started/completed, data/inst
system.cpu2.itb.walker.walkRequestOrigin_Requested::Inst         5128                       # Table walker requests started/completed, data/inst
system.cpu2.itb.walker.walkRequestOrigin_Requested::total         5128                       # Table walker requests started/completed, data/inst
system.cpu2.itb.walker.walkRequestOrigin_Completed::Data            0                       # Table walker requests started/completed, data/inst
system.cpu2.itb.walker.walkRequestOrigin_Completed::Inst         3295                       # Table walker requests started/completed, data/inst
system.cpu2.itb.walker.walkRequestOrigin_Completed::total         3295                       # Table walker requests started/completed, data/inst
system.cpu2.itb.walker.walkRequestOrigin::total         8423                       # Table walker requests started/completed, data/inst
[...]
system.mem_ctrls.bytesReadDRAM                      0                       # Total number of bytes read from DRAM
system.mem_ctrls.bytesReadWrQ                       0                       # Total number of bytes read from write queue
system.mem_ctrls.bytesWritten                       0                       # Total number of bytes written to DRAM
system.mem_ctrls.bytesReadSys                       0                       # Total read bytes from the system interface side
system.mem_ctrls.bytesWrittenSys                    0                       # Total written bytes from the system interface side
system.mem_ctrls.avgRdBW                         0.00                       # Average DRAM read bandwidth in MiByte/s
system.mem_ctrls.avgWrBW                         0.00                       # Average achieved write bandwidth in MiByte/s
system.mem_ctrls.avgRdBWSys                      0.00                       # Average system read bandwidth in MiByte/s
system.mem_ctrls.avgWrBWSys                      0.00                       # Average system write bandwidth in MiByte/s
system.mem_ctrls.peakBW                      19207.00                       # Theoretical peak bandwidth in MiByte/s
system.mem_ctrls.busUtil                         0.00                       # Data bus utilization in percentage
system.mem_ctrls.busUtilRead                     0.00                       # Data bus utilization in percentage for reads
system.mem_ctrls.busUtilWrite                    0.00                       # Data bus utilization in percentage for writes
system.mem_ctrls.totGap                             0                       # Total gap between requests
system.mem_ctrls.avgGap                           nan                       # Average gap between requests
system.mem_ctrls.pageHitRate                      nan                       # Row buffer hit rate, read and write combined
system.mem_ctrls.rank1.actEnergy                    0                       # Energy for activate commands per rank (pJ)
system.mem_ctrls.rank1.preEnergy                    0                       # Energy for precharge commands per rank (pJ)
system.mem_ctrls.rank1.readEnergy                   0                       # Energy for read commands per rank (pJ)
system.mem_ctrls.rank1.writeEnergy                  0                       # Energy for write commands per rank (pJ)
system.mem_ctrls.rank1.refreshEnergy     667745283.004804                       # Energy for refresh commands per rank (pJ)
system.mem_ctrls.rank1.actBackEnergy     157202981.644803                       # Energy for active background per rank (pJ)
system.mem_ctrls.rank1.preBackEnergy     2401077984.479998                       # Energy for precharge background per rank (pJ)
system.mem_ctrls.rank1.actPowerDownEnergy            0                       # Energy for active power-down per rank (pJ)
system.mem_ctrls.rank1.prePowerDownEnergy            0                       # Energy for precharge power-down per rank (pJ)
system.mem_ctrls.rank1.selfRefreshEnergy            0                       # Energy for self refresh per rank (pJ)
system.mem_ctrls.rank1.totalEnergy       3226026249.129556                       # Total energy per rank (pJ)
system.mem_ctrls.rank1.averagePower        419.580445                       # Core power per rank (mW)
system.mem_ctrls.rank1.totalIdleTime                0                       # Total Idle time Per DRAM Rank
system.mem_ctrls.rank1.memoryStateTime::IDLE   7346609920                       # Time in different power states
system.mem_ctrls.rank1.memoryStateTime::REF    345744504                       # Time in different power states
system.mem_ctrls.rank1.memoryStateTime::SREF            0                       # Time in different power states
system.mem_ctrls.rank1.memoryStateTime::PRE_PDN            0                       # Time in different power states
system.mem_ctrls.rank1.memoryStateTime::ACT            0                       # Time in different power states
system.mem_ctrls.rank1.memoryStateTime::ACT_PDN            0                       # Time in different power states
system.mem_ctrls.rank0.actEnergy                    0                       # Energy for activate commands per rank (pJ)
system.mem_ctrls.rank0.preEnergy                    0                       # Energy for precharge commands per rank (pJ)
system.mem_ctrls.rank0.readEnergy                   0                       # Energy for read commands per rank (pJ)
system.mem_ctrls.rank0.writeEnergy                  0                       # Energy for write commands per rank (pJ)
system.mem_ctrls.rank0.refreshEnergy     667745283.004804                       # Energy for refresh commands per rank (pJ)
system.mem_ctrls.rank0.actBackEnergy     157202981.644803                       # Energy for active background per rank (pJ)
system.mem_ctrls.rank0.preBackEnergy     2401077984.479998                       # Energy for precharge background per rank (pJ)
system.mem_ctrls.rank0.actPowerDownEnergy            0                       # Energy for active power-down per rank (pJ)
system.mem_ctrls.rank0.prePowerDownEnergy            0                       # Energy for precharge power-down per rank (pJ)
system.mem_ctrls.rank0.selfRefreshEnergy            0                       # Energy for self refresh per rank (pJ)
system.mem_ctrls.rank0.totalEnergy       3226026249.129556                       # Total energy per rank (pJ)
system.mem_ctrls.rank0.averagePower        419.580445                       # Core power per rank (mW)
system.mem_ctrls.rank0.totalIdleTime                0                       # Total Idle time Per DRAM Rank
system.mem_ctrls.rank0.memoryStateTime::IDLE   7346609920                       # Time in different power states
system.mem_ctrls.rank0.memoryStateTime::REF    345744504                       # Time in different power states
system.mem_ctrls.rank0.memoryStateTime::SREF            0                       # Time in different power states
system.mem_ctrls.rank0.memoryStateTime::PRE_PDN            0                       # Time in different power states
system.mem_ctrls.rank0.memoryStateTime::ACT            0                       # Time in different power states
system.mem_ctrls.rank0.memoryStateTime::ACT_PDN            0                       # Time in different power states
system.cpu1.pwrStateClkGateDist::samples            1                       # Distribution of time spent in the clock gated state
system.cpu1.pwrStateClkGateDist::mean      7708076964                       # Distribution of time spent in the clock gated state
system.cpu1.pwrStateClkGateDist::1000-5e+10            1    100.00%    100.00% # Distribution of time spent in the clock gated state
system.cpu1.pwrStateClkGateDist::min_value   7708076964                       # Distribution of time spent in the clock gated state
system.cpu1.pwrStateClkGateDist::max_value   7708076964                       # Distribution of time spent in the clock gated state
system.cpu1.pwrStateClkGateDist::total              1                       # Distribution of time spent in the clock gated state
system.cpu1.pwrStateResidencyTicks::CLK_GATED   7708076964                       # Cumulative time (in ticks) in various power states
system.cpu1.icache.pwrStateResidencyTicks::UNDEFINED   7708076964                       # Cumulative time (in ticks) in various power states
system.cpu1.icache.blocked_cycles::no_mshrs            0                       # number of cycles access was blocked
system.cpu1.icache.blocked_cycles::no_targets            0                       # number of cycles access was blocked
system.cpu1.icache.blocked::no_mshrs                0                       # number of cycles access was blocked
system.cpu1.icache.blocked::no_targets              0                       # number of cycles access was blocked
system.cpu1.icache.avg_blocked_cycles::no_mshrs          nan                       # average number of cycles each access was blocked
system.cpu1.icache.avg_blocked_cycles::no_targets          nan                       # average number of cycles each access was blocked
system.cpu1.icache.replacements                     0                       # number of replacements
system.cpu1.icache.tags.pwrStateResidencyTicks::UNDEFINED   7708076964                       # Cumulative time (in ticks) in various power states
system.cpu1.icache.tags.tagsinuse               13687                       # Cycle average of tags in use
system.cpu1.icache.tags.total_refs            3949108                       # Total number of references to valid blocks.
system.cpu1.icache.tags.sampled_refs            13687                       # Sample count of references to valid blocks.
system.cpu1.icache.tags.avg_refs           288.529846                       # Average number of references to valid blocks.
system.cpu1.icache.tags.warmup_cycle                0                       # Cycle when the warmup percentage was hit.
system.cpu1.icache.tags.occ_blocks::.cpu1.inst        13687                       # Average occupied blocks per requestor
system.cpu1.icache.tags.occ_percent::.cpu1.inst     0.013053                       # Average percentage of cache occupancy
system.cpu1.icache.tags.occ_percent::total     0.013053                       # Average percentage of cache occupancy
system.cpu1.icache.tags.occ_task_id_blocks::1024        13687                       # Occupied blocks per task id
system.cpu1.icache.tags.age_task_id_blocks_1024::4        13687                       # Occupied blocks per task id
system.cpu1.icache.tags.occ_task_id_percent::1024     0.013053                       # Percentage of cache occupancy per task id
system.cpu1.icache.tags.tag_accesses                0                       # Number of tag accesses
system.cpu1.icache.tags.data_accesses               0                       # Number of data accesses
system.cpu1.dtb.walker.pwrStateResidencyTicks::UNDEFINED   7708076964                       # Cumulative time (in ticks) in various power states
system.cpu1.dtb.stage2_mmu.stage2_tlb.walker.pwrStateResidencyTicks::UNDEFINED   7708076964                       # Cumulative time (in ticks) in various power states
system.cpu1.itb_walker_cache.pwrStateResidencyTicks::UNDEFINED   7708076964                       # Cumulative time (in ticks) in various power states
system.cpu1.itb_walker_cache.blocked_cycles::no_mshrs            0                       # number of cycles access was blocked
system.cpu1.itb_walker_cache.blocked_cycles::no_targets            0                       # number of cycles access was blocked
system.cpu1.itb_walker_cache.blocked::no_mshrs            0                       # number of cycles access was blocked
system.cpu1.itb_walker_cache.blocked::no_targets            0                       # number of cycles access was blocked
system.cpu1.itb_walker_cache.avg_blocked_cycles::no_mshrs          nan                       # average number of cycles each access was blocked
system.cpu1.itb_walker_cache.avg_blocked_cycles::no_targets          nan                       # average number of cycles each access was blocked
system.cpu1.itb_walker_cache.replacements            0                       # number of replacements
system.cpu1.itb_walker_cache.tags.pwrStateResidencyTicks::UNDEFINED   7708076964                       # Cumulative time (in ticks) in various power states
system.cpu1.itb_walker_cache.tags.tagsinuse           16                       # Cycle average of tags in use
system.cpu1.itb_walker_cache.tags.total_refs          117                       # Total number of references to valid blocks.
system.cpu1.itb_walker_cache.tags.sampled_refs           16                       # Sample count of references to valid blocks.
system.cpu1.itb_walker_cache.tags.avg_refs     7.312500                       # Average number of references to valid blocks.
system.cpu1.itb_walker_cache.tags.warmup_cycle            0                       # Cycle when the warmup percentage was hit.
system.cpu1.itb_walker_cache.tags.occ_blocks::.cpu1.itb.walker           16                       # Average occupied blocks per requestor
system.cpu1.itb_walker_cache.tags.occ_percent::.cpu1.itb.walker            1                       # Average percentage of cache occupancy
system.cpu1.itb_walker_cache.tags.occ_percent::total            1                       # Average percentage of cache occupancy
system.cpu1.itb_walker_cache.tags.occ_task_id_blocks::1023           16                       # Occupied blocks per task id
system.cpu1.itb_walker_cache.tags.age_task_id_blocks_1023::4           16                       # Occupied blocks per task id
system.cpu1.itb_walker_cache.tags.occ_task_id_percent::1023            1                       # Percentage of cache occupancy per task id
system.cpu1.itb_walker_cache.tags.tag_accesses            0                       # Number of tag accesses
system.cpu1.itb_walker_cache.tags.data_accesses            0                       # Number of data accesses
system.cpu1.dtb_walker_cache.pwrStateResidencyTicks::UNDEFINED   7708076964                       # Cumulative time (in ticks) in various power states
system.cpu1.dtb_walker_cache.blocked_cycles::no_mshrs            0                       # number of cycles access was blocked
system.cpu1.dtb_walker_cache.blocked_cycles::no_targets            0                       # number of cycles access was blocked
system.cpu1.dtb_walker_cache.blocked::no_mshrs            0                       # number of cycles access was blocked
system.cpu1.dtb_walker_cache.blocked::no_targets            0                       # number of cycles access was blocked
system.cpu1.dtb_walker_cache.avg_blocked_cycles::no_mshrs          nan                       # average number of cycles each access was blocked
system.cpu1.dtb_walker_cache.avg_blocked_cycles::no_targets          nan                       # average number of cycles each access was blocked
system.cpu1.dtb_walker_cache.replacements            0                       # number of replacements
system.cpu1.dtb_walker_cache.tags.pwrStateResidencyTicks::UNDEFINED   7708076964                       # Cumulative time (in ticks) in various power states
system.cpu1.dtb_walker_cache.tags.tagsinuse           16                       # Cycle average of tags in use
system.cpu1.dtb_walker_cache.tags.total_refs          840                       # Total number of references to valid blocks.
system.cpu1.dtb_walker_cache.tags.sampled_refs           16                       # Sample count of references to valid blocks.
system.cpu1.dtb_walker_cache.tags.avg_refs    52.500000                       # Average number of references to valid blocks.
system.cpu1.dtb_walker_cache.tags.warmup_cycle            0                       # Cycle when the warmup percentage was hit.
system.cpu1.dtb_walker_cache.tags.occ_blocks::.cpu1.dtb.walker           16                       # Average occupied blocks per requestor
system.cpu1.dtb_walker_cache.tags.occ_percent::.cpu1.dtb.walker            1                       # Average percentage of cache occupancy
system.cpu1.dtb_walker_cache.tags.occ_percent::total            1                       # Average percentage of cache occupancy
system.cpu1.dtb_walker_cache.tags.occ_task_id_blocks::1023           16                       # Occupied blocks per task id
system.cpu1.dtb_walker_cache.tags.age_task_id_blocks_1023::4           16                       # Occupied blocks per task id
system.cpu1.dtb_walker_cache.tags.occ_task_id_percent::1023            1                       # Percentage of cache occupancy per task id
system.cpu1.dtb_walker_cache.tags.tag_accesses            0                       # Number of tag accesses
system.cpu1.dtb_walker_cache.tags.data_accesses            0                       # Number of data accesses
system.cpu1.dcache.pwrStateResidencyTicks::UNDEFINED   7708076964                       # Cumulative time (in ticks) in various power states
system.cpu1.dcache.blocked_cycles::no_mshrs            0                       # number of cycles access was blocked
system.cpu1.dcache.blocked_cycles::no_targets            0                       # number of cycles access was blocked
system.cpu1.dcache.blocked::no_mshrs                0                       # number of cycles access was blocked
system.cpu1.dcache.blocked::no_targets              0                       # number of cycles access was blocked
system.cpu1.dcache.avg_blocked_cycles::no_mshrs          nan                       # average number of cycles each access was blocked
system.cpu1.dcache.avg_blocked_cycles::no_targets          nan                       # average number of cycles each access was blocked
system.cpu1.dcache.replacements                     0                       # number of replacements
system.cpu1.dcache.prefetcher.pwrStateResidencyTicks::UNDEFINED   7708076964                       # Cumulative time (in ticks) in various power states
system.cpu1.dcache.tags.pwrStateResidencyTicks::UNDEFINED   7708076964                       # Cumulative time (in ticks) in various power states
system.cpu1.dcache.tags.tagsinuse               16955                       # Cycle average of tags in use
system.cpu1.dcache.tags.total_refs            2677855                       # Total number of references to valid blocks.
system.cpu1.dcache.tags.sampled_refs            16955                       # Sample count of references to valid blocks.
system.cpu1.dcache.tags.avg_refs           157.938956                       # Average number of references to valid blocks.
system.cpu1.dcache.tags.warmup_cycle                0                       # Cycle when the warmup percentage was hit.
system.cpu1.dcache.tags.occ_blocks::.cpu1.data        13196                       # Average occupied blocks per requestor
system.cpu1.dcache.tags.occ_blocks::.cpu1.dcache.prefetcher         3759                       # Average occupied blocks per requestor
system.cpu1.dcache.tags.occ_percent::.cpu1.data     0.012585                       # Average percentage of cache occupancy
system.cpu1.dcache.tags.occ_percent::.cpu1.dcache.prefetcher     0.003585                       # Average percentage of cache occupancy
system.cpu1.dcache.tags.occ_percent::total     0.016170                       # Average percentage of cache occupancy
system.cpu1.dcache.tags.occ_task_id_blocks::1022         3759                       # Occupied blocks per task id
system.cpu1.dcache.tags.occ_task_id_blocks::1024        13196                       # Occupied blocks per task id
system.cpu1.dcache.tags.age_task_id_blocks_1022::4         3759                       # Occupied blocks per task id
system.cpu1.dcache.tags.age_task_id_blocks_1024::4        13196                       # Occupied blocks per task id
system.cpu1.dcache.tags.occ_task_id_percent::1022     0.003585                       # Percentage of cache occupancy per task id
system.cpu1.dcache.tags.occ_task_id_percent::1024     0.012585                       # Percentage of cache occupancy per task id
system.cpu1.dcache.tags.tag_accesses                0                       # Number of tag accesses
system.cpu1.dcache.tags.data_accesses               0                       # Number of data accesses
system.cpu1.itb.walker.pwrStateResidencyTicks::UNDEFINED   7708076964                       # Cumulative time (in ticks) in various power states
system.cpu1.itb.stage2_mmu.stage2_tlb.walker.pwrStateResidencyTicks::UNDEFINED   7708076964                       # Cumulative time (in ticks) in various power states
system.cpu_clk_domain.clock                       714                       # Clock period in ticks
system.pci_ide.pwrStateResidencyTicks::UNDEFINED   7708076964                       # Cumulative time (in ticks) in various power states

---------- End Simulation Statistics   ----------
