
---------- Begin Simulation Statistics ----------
final_tick                               47149297483116112                       # Number of ticks from beginning of simulation (restored from checkpoints and never reset)
host_inst_rate                                 318772                       # Simulator instruction rate (inst/s)
host_mem_usage                                6324584                       # Number of bytes of host memory used
host_op_rate                                   404236                       # Simulator op (including micro ops) rate (op/s)
host_seconds                                   911.21                       # Real time elapsed on the host
host_tick_rate                              428668157                       # Simulator tick rate (ticks/s)
sim_freq                                 1000000000000                       # Frequency of simulated ticks
sim_insts                                   290468555                       # Number of instructions simulated
sim_ops                                     368343540                       # Number of ops (including micro ops) simulated
sim_seconds                                  0.390607                       # Number of seconds simulated
sim_ticks                                390606787620                       # Number of ticks simulated
system.cpu0.branchPred.BTBCorrect                   0                       # Number of correct BTB predictions (this stat may not work properly.
system.cpu0.branchPred.BTBHitPct            17.886385                       # BTB Hit Percentage
system.cpu0.branchPred.BTBHits                  37355                       # Number of BTB hits
system.cpu0.branchPred.BTBLookups              208846                       # Number of BTB lookups
system.cpu0.branchPred.RASInCorrect              6340                       # Number of incorrect RAS predictions.
system.cpu0.branchPred.condIncorrect            41928                       # Number of conditional branches incorrect
system.cpu0.branchPred.condPredicted           123313                       # Number of conditional branches predicted
system.cpu0.branchPred.indirectHits              3260                       # Number of indirect target hits.
system.cpu0.branchPred.indirectLookups           5194                       # Number of indirect predictor lookups.
system.cpu0.branchPred.indirectMisses            1934                       # Number of indirect misses.
system.cpu0.branchPred.lookups                 287857                       # Number of BP lookups
system.cpu0.branchPred.usedRAS                  75889                       # Number of times the RAS was used to get a target.
system.cpu0.branchPredindirectMispredicted          316                       # Number of mispredicted indirect branches.
system.cpu0.committedInsts                     685173                       # Number of instructions committed
system.cpu0.committedOps                       900805                       # Number of ops (including micro ops) committed
system.cpu0.cpi                              2.197878                       # CPI: cycles per instruction
system.cpu0.dcache.prefetcher.num_hwpf_issued          146                       # number of hwpf issued
system.cpu0.dcache.prefetcher.pfBufferHit            5                       # number of redundant prefetches already in prefetch queue
system.cpu0.dcache.prefetcher.pfIdentified          156                       # number of prefetch candidates identified
system.cpu0.dcache.prefetcher.pfInCache             0                       # number of redundant prefetches already in cache/mshr dropped
system.cpu0.dcache.prefetcher.pfRemovedFull            0                       # number of prefetches dropped due to prefetch queue size
system.cpu0.dcache.prefetcher.pfSpanPage           88                       # number of prefetches that crossed the page
system.cpu0.discardedOps                       138102                       # Number of ops (including micro ops) which were discarded before commit
system.cpu0.dtb.accesses                       337950                       # DTB accesses
system.cpu0.dtb.align_faults                        2                       # Number of TLB faults due to alignment restrictions
system.cpu0.dtb.domain_faults                       0                       # Number of TLB faults due to domain restrictions
system.cpu0.dtb.flush_entries                       0                       # Number of entries that have been flushed from TLB
system.cpu0.dtb.flush_tlb                           0                       # Number of times complete TLB was flushed
system.cpu0.dtb.flush_tlb_asid                      3                       # Number of times TLB was flushed by ASID
system.cpu0.dtb.flush_tlb_mva                       0                       # Number of times TLB was flushed by MVA
system.cpu0.dtb.flush_tlb_mva_asid                141                       # Number of times TLB was flushed by MVA & ASID
system.cpu0.dtb.hits                           336403                       # DTB hits
system.cpu0.dtb.inst_accesses                       0                       # ITB inst accesses
system.cpu0.dtb.inst_hits                           0                       # ITB inst hits
system.cpu0.dtb.inst_misses                         0                       # ITB inst misses
system.cpu0.dtb.misses                           1547                       # DTB misses
system.cpu0.dtb.perms_faults                       10                       # Number of TLB faults due to permissions restrictions
system.cpu0.dtb.prefetch_faults                    13                       # Number of TLB faults due to prefetch
system.cpu0.dtb.read_accesses                  183219                       # DTB read accesses
system.cpu0.dtb.read_hits                      182030                       # DTB read hits
system.cpu0.dtb.read_misses                      1189                       # DTB read misses
system.cpu0.dtb.stage2_mmu.stage2_tlb.accesses            0                       # DTB accesses
system.cpu0.dtb.stage2_mmu.stage2_tlb.align_faults            0                       # Number of TLB faults due to alignment restrictions
system.cpu0.dtb.stage2_mmu.stage2_tlb.domain_faults            0                       # Number of TLB faults due to domain restrictions
system.cpu0.dtb.stage2_mmu.stage2_tlb.flush_entries            0                       # Number of entries that have been flushed from TLB
system.cpu0.dtb.stage2_mmu.stage2_tlb.flush_tlb            0                       # Number of times complete TLB was flushed
system.cpu0.dtb.stage2_mmu.stage2_tlb.flush_tlb_asid            0                       # Number of times TLB was flushed by ASID
system.cpu0.dtb.stage2_mmu.stage2_tlb.flush_tlb_mva            0                       # Number of times TLB was flushed by MVA
system.cpu0.dtb.stage2_mmu.stage2_tlb.flush_tlb_mva_asid            0                       # Number of times TLB was flushed by MVA & ASID
system.cpu0.dtb.stage2_mmu.stage2_tlb.hits            0                       # DTB hits
system.cpu0.dtb.stage2_mmu.stage2_tlb.inst_accesses            0                       # ITB inst accesses
system.cpu0.dtb.stage2_mmu.stage2_tlb.inst_hits            0                       # ITB inst hits
system.cpu0.dtb.stage2_mmu.stage2_tlb.inst_misses            0                       # ITB inst misses
system.cpu0.dtb.stage2_mmu.stage2_tlb.misses            0                       # DTB misses
system.cpu0.dtb.stage2_mmu.stage2_tlb.perms_faults            0                       # Number of TLB faults due to permissions restrictions
system.cpu0.dtb.stage2_mmu.stage2_tlb.prefetch_faults            0                       # Number of TLB faults due to prefetch
system.cpu0.dtb.stage2_mmu.stage2_tlb.read_accesses            0                       # DTB read accesses
system.cpu0.dtb.stage2_mmu.stage2_tlb.read_hits            0                       # DTB read hits
system.cpu0.dtb.stage2_mmu.stage2_tlb.read_misses            0                       # DTB read misses
system.cpu0.dtb.stage2_mmu.stage2_tlb.walker.walkRequestOrigin_Requested::Data            0                       # Table walker requests started/completed, data/inst
system.cpu0.dtb.stage2_mmu.stage2_tlb.walker.walkRequestOrigin_Requested::Inst            0                       # Table walker requests started/completed, data/inst
system.cpu0.dtb.stage2_mmu.stage2_tlb.walker.walkRequestOrigin_Requested::total            0                       # Table walker requests started/completed, data/inst
system.cpu0.dtb.stage2_mmu.stage2_tlb.walker.walkRequestOrigin_Completed::Data            0                       # Table walker requests started/completed, data/inst
system.cpu0.dtb.stage2_mmu.stage2_tlb.walker.walkRequestOrigin_Completed::Inst            0                       # Table walker requests started/completed, data/inst
system.cpu0.dtb.stage2_mmu.stage2_tlb.walker.walkRequestOrigin_Completed::total            0                       # Table walker requests started/completed, data/inst
system.cpu0.dtb.stage2_mmu.stage2_tlb.walker.walkRequestOrigin::total            0                       # Table walker requests started/completed, data/inst
system.cpu0.dtb.stage2_mmu.stage2_tlb.walker.walks            0                       # Table walker walks requested
system.cpu0.dtb.stage2_mmu.stage2_tlb.write_accesses            0                       # DTB write accesses
system.cpu0.dtb.stage2_mmu.stage2_tlb.write_hits            0                       # DTB write hits
system.cpu0.dtb.stage2_mmu.stage2_tlb.write_misses            0                       # DTB write misses
system.cpu0.dtb.walker.walkCompletionTime::samples            2                       # Table walker service (enqueue to completion) latency
system.cpu0.dtb.walker.walkCompletionTime::mean        27132                       # Table walker service (enqueue to completion) latency
system.cpu0.dtb.walker.walkCompletionTime::gmean 27132.000000                       # Table walker service (enqueue to completion) latency
system.cpu0.dtb.walker.walkCompletionTime::26624-28671            2    100.00%    100.00% # Table walker service (enqueue to completion) latency
system.cpu0.dtb.walker.walkCompletionTime::total            2                       # Table walker service (enqueue to completion) latency
system.cpu0.dtb.walker.walkPageSizes::4K            2    100.00%    100.00% # Table walker page sizes translated
system.cpu0.dtb.walker.walkPageSizes::total            2                       # Table walker page sizes translated
system.cpu0.dtb.walker.walkRequestOrigin_Requested::Data         1547                       # Table walker requests started/completed, data/inst
system.cpu0.dtb.walker.walkRequestOrigin_Requested::Inst            0                       # Table walker requests started/completed, data/inst
system.cpu0.dtb.walker.walkRequestOrigin_Requested::total         1547                       # Table walker requests started/completed, data/inst
system.cpu0.dtb.walker.walkRequestOrigin_Completed::Data            2                       # Table walker requests started/completed, data/inst
system.cpu0.dtb.walker.walkRequestOrigin_Completed::Inst            0                       # Table walker requests started/completed, data/inst
system.cpu0.dtb.walker.walkRequestOrigin_Completed::total            2                       # Table walker requests started/completed, data/inst
system.cpu0.dtb.walker.walkRequestOrigin::total         1549                       # Table walker requests started/completed, data/inst
system.cpu0.dtb.walker.walkWaitTime::samples         1547                       # Table walker wait (enqueue to first request) latency
system.cpu0.dtb.walker.walkWaitTime::0           1547    100.00%    100.00% # Table walker wait (enqueue to first request) latency
system.cpu0.dtb.walker.walkWaitTime::total         1547                       # Table walker wait (enqueue to first request) latency
system.cpu0.dtb.walker.walks                     1547                       # Table walker walks requested
system.cpu0.dtb.walker.walksLong                 1547                       # Table walker walks initiated with long descriptors
system.cpu0.dtb.walker.walksLongTerminationLevel::Level3            2                       # Level at which table walker walks with long descriptors terminate
system.cpu0.dtb.write_accesses                 154731                       # DTB write accesses
system.cpu0.dtb.write_hits                     154373                       # DTB write hits
system.cpu0.dtb.write_misses                      358                       # DTB write misses
system.cpu0.fetch2.amo_instructions                 0                       # Number of memory atomic instructions successfully decoded
system.cpu0.fetch2.fp_instructions                  0                       # Number of floating point instructions successfully decoded
system.cpu0.fetch2.int_instructions            746779                       # Number of integer instructions successfully decoded
system.cpu0.fetch2.load_instructions           197361                       # Number of memory load instructions successfully decoded
system.cpu0.fetch2.store_instructions           57528                       # Number of memory store instructions successfully decoded
system.cpu0.fetch2.vec_instructions                 0                       # Number of SIMD instructions successfully decoded
system.cpu0.idleCycles                         248978                       # Total number of cycles that the object has spent stopped
system.cpu0.ipc                              0.454984                       # IPC: instructions per cycle
system.cpu0.itb.accesses                       426885                       # DTB accesses
system.cpu0.itb.align_faults                        0                       # Number of TLB faults due to alignment restrictions
system.cpu0.itb.domain_faults                       0                       # Number of TLB faults due to domain restrictions
system.cpu0.itb.flush_entries                       0                       # Number of entries that have been flushed from TLB
system.cpu0.itb.flush_tlb                           0                       # Number of times complete TLB was flushed
system.cpu0.itb.flush_tlb_asid                      3                       # Number of times TLB was flushed by ASID
system.cpu0.itb.flush_tlb_mva                       0                       # Number of times TLB was flushed by MVA
system.cpu0.itb.flush_tlb_mva_asid                141                       # Number of times TLB was flushed by MVA & ASID
system.cpu0.itb.hits                           426878                       # DTB hits
system.cpu0.itb.inst_accesses                  426885                       # ITB inst accesses
system.cpu0.itb.inst_hits                      426878                       # ITB inst hits
system.cpu0.itb.inst_misses                         7                       # ITB inst misses
system.cpu0.itb.misses                              7                       # DTB misses
system.cpu0.itb.perms_faults                        0                       # Number of TLB faults due to permissions restrictions
system.cpu0.itb.prefetch_faults                     0                       # Number of TLB faults due to prefetch
system.cpu0.itb.read_accesses                       0                       # DTB read accesses
system.cpu0.itb.read_hits                           0                       # DTB read hits
system.cpu0.itb.read_misses                         0                       # DTB read misses
system.cpu0.itb.stage2_mmu.stage2_tlb.accesses            0                       # DTB accesses
system.cpu0.itb.stage2_mmu.stage2_tlb.align_faults            0                       # Number of TLB faults due to alignment restrictions
system.cpu0.itb.stage2_mmu.stage2_tlb.domain_faults            0                       # Number of TLB faults due to domain restrictions
system.cpu0.itb.stage2_mmu.stage2_tlb.flush_entries            0                       # Number of entries that have been flushed from TLB
system.cpu0.itb.stage2_mmu.stage2_tlb.flush_tlb            0                       # Number of times complete TLB was flushed
system.cpu0.itb.stage2_mmu.stage2_tlb.flush_tlb_asid            0                       # Number of times TLB was flushed by ASID
system.cpu0.itb.stage2_mmu.stage2_tlb.flush_tlb_mva            0                       # Number of times TLB was flushed by MVA
system.cpu0.itb.stage2_mmu.stage2_tlb.flush_tlb_mva_asid            0                       # Number of times TLB was flushed by MVA & ASID
system.cpu0.itb.stage2_mmu.stage2_tlb.hits            0                       # DTB hits
system.cpu0.itb.stage2_mmu.stage2_tlb.inst_accesses            0                       # ITB inst accesses
system.cpu0.itb.stage2_mmu.stage2_tlb.inst_hits            0                       # ITB inst hits
system.cpu0.itb.stage2_mmu.stage2_tlb.inst_misses            0                       # ITB inst misses
system.cpu0.itb.stage2_mmu.stage2_tlb.misses            0                       # DTB misses
system.cpu0.itb.stage2_mmu.stage2_tlb.perms_faults            0                       # Number of TLB faults due to permissions restrictions
system.cpu0.itb.stage2_mmu.stage2_tlb.prefetch_faults            0                       # Number of TLB faults due to prefetch
system.cpu0.itb.stage2_mmu.stage2_tlb.read_accesses            0                       # DTB read accesses
system.cpu0.itb.stage2_mmu.stage2_tlb.read_hits            0                       # DTB read hits
system.cpu0.itb.stage2_mmu.stage2_tlb.read_misses            0                       # DTB read misses
system.cpu0.itb.stage2_mmu.stage2_tlb.walker.walkRequestOrigin_Requested::Data            0                       # Table walker requests started/completed, data/inst
system.cpu0.itb.stage2_mmu.stage2_tlb.walker.walkRequestOrigin_Requested::Inst            0                       # Table walker requests started/completed, data/inst
system.cpu0.itb.stage2_mmu.stage2_tlb.walker.walkRequestOrigin_Requested::total            0                       # Table walker requests started/completed, data/inst
system.cpu0.itb.stage2_mmu.stage2_tlb.walker.walkRequestOrigin_Completed::Data            0                       # Table walker requests started/completed, data/inst
system.cpu0.itb.stage2_mmu.stage2_tlb.walker.walkRequestOrigin_Completed::Inst            0                       # Table walker requests started/completed, data/inst
system.cpu0.itb.stage2_mmu.stage2_tlb.walker.walkRequestOrigin_Completed::total            0                       # Table walker requests started/completed, data/inst
system.cpu0.itb.stage2_mmu.stage2_tlb.walker.walkRequestOrigin::total            0                       # Table walker requests started/completed, data/inst
system.cpu0.itb.stage2_mmu.stage2_tlb.walker.walks            0                       # Table walker walks requested
system.cpu0.itb.stage2_mmu.stage2_tlb.write_accesses            0                       # DTB write accesses
system.cpu0.itb.stage2_mmu.stage2_tlb.write_hits            0                       # DTB write hits
system.cpu0.itb.stage2_mmu.stage2_tlb.write_misses            0                       # DTB write misses
system.cpu0.itb.walker.walkCompletionTime::samples            7                       # Table walker service (enqueue to completion) latency
system.cpu0.itb.walker.walkCompletionTime::mean        19278                       # Table walker service (enqueue to completion) latency
system.cpu0.itb.walker.walkCompletionTime::gmean 17646.942457                       # Table walker service (enqueue to completion) latency
system.cpu0.itb.walker.walkCompletionTime::stdev  8098.996975                       # Table walker service (enqueue to completion) latency
system.cpu0.itb.walker.walkCompletionTime::10240-12287            3     42.86%     42.86% # Table walker service (enqueue to completion) latency
system.cpu0.itb.walker.walkCompletionTime::22528-24575            2     28.57%     71.43% # Table walker service (enqueue to completion) latency
system.cpu0.itb.walker.walkCompletionTime::26624-28671            2     28.57%    100.00% # Table walker service (enqueue to completion) latency
system.cpu0.itb.walker.walkCompletionTime::total            7                       # Table walker service (enqueue to completion) latency
system.cpu0.itb.walker.walkPageSizes::4K            7    100.00%    100.00% # Table walker page sizes translated
system.cpu0.itb.walker.walkPageSizes::total            7                       # Table walker page sizes translated
system.cpu0.itb.walker.walkRequestOrigin_Requested::Data            0                       # Table walker requests started/completed, data/inst
system.cpu0.itb.walker.walkRequestOrigin_Requested::Inst            7                       # Table walker requests started/completed, data/inst
system.cpu0.itb.walker.walkRequestOrigin_Requested::total            7                       # Table walker requests started/completed, data/inst
system.cpu0.itb.walker.walkRequestOrigin_Completed::Data            0                       # Table walker requests started/completed, data/inst
system.cpu0.itb.walker.walkRequestOrigin_Completed::Inst            7                       # Table walker requests started/completed, data/inst
system.cpu0.itb.walker.walkRequestOrigin_Completed::total            7                       # Table walker requests started/completed, data/inst
system.cpu0.itb.walker.walkRequestOrigin::total           14                       # Table walker requests started/completed, data/inst
system.cpu0.itb.walker.walkWaitTime::samples            7                       # Table walker wait (enqueue to first request) latency
system.cpu0.itb.walker.walkWaitTime::0              7    100.00%    100.00% # Table walker wait (enqueue to first request) latency
system.cpu0.itb.walker.walkWaitTime::total            7                       # Table walker wait (enqueue to first request) latency
system.cpu0.itb.walker.walks                        7                       # Table walker walks requested
system.cpu0.itb.walker.walksLong                    7                       # Table walker walks initiated with long descriptors
system.cpu0.itb.walker.walksLongTerminationLevel::Level3            7                       # Level at which table walker walks with long descriptors terminate
system.cpu0.itb.write_accesses                      0                       # DTB write accesses
system.cpu0.itb.write_hits                          0                       # DTB write hits
system.cpu0.itb.write_misses                        0                       # DTB write misses
system.cpu0.kern.inst.arm                           0                       # number of arm instructions executed
system.cpu0.kern.inst.quiesce                     152                       # number of quiesce instructions executed
system.cpu0.numCycles                         1505927                       # number of cpu cycles simulated
system.cpu0.numFetchSuspends                      152                       # Number of times Execute suspended instruction fetching
system.cpu0.numWorkItemsCompleted                   0                       # number of work items this cpu completed
system.cpu0.numWorkItemsStarted                     0                       # number of work items this cpu started
system.cpu0.op_class_0::No_OpClass                  0      0.00%      0.00% # Class of committed instruction
system.cpu0.op_class_0::IntAlu                 585477     64.99%     64.99% # Class of committed instruction
system.cpu0.op_class_0::IntMult                   766      0.09%     65.08% # Class of committed instruction
system.cpu0.op_class_0::IntDiv                    177      0.02%     65.10% # Class of committed instruction
system.cpu0.op_class_0::FloatAdd                    0      0.00%     65.10% # Class of committed instruction
system.cpu0.op_class_0::FloatCmp                    0      0.00%     65.10% # Class of committed instruction
system.cpu0.op_class_0::FloatCvt                    0      0.00%     65.10% # Class of committed instruction
system.cpu0.op_class_0::FloatMult                   0      0.00%     65.10% # Class of committed instruction
system.cpu0.op_class_0::FloatMultAcc                0      0.00%     65.10% # Class of committed instruction
system.cpu0.op_class_0::FloatDiv                    0      0.00%     65.10% # Class of committed instruction
system.cpu0.op_class_0::FloatMisc                   0      0.00%     65.10% # Class of committed instruction
system.cpu0.op_class_0::FloatSqrt                   0      0.00%     65.10% # Class of committed instruction
system.cpu0.op_class_0::SimdAdd                     0      0.00%     65.10% # Class of committed instruction
system.cpu0.op_class_0::SimdAddAcc                  0      0.00%     65.10% # Class of committed instruction
system.cpu0.op_class_0::SimdAlu                     0      0.00%     65.10% # Class of committed instruction
system.cpu0.op_class_0::SimdCmp                     0      0.00%     65.10% # Class of committed instruction
system.cpu0.op_class_0::SimdCvt                     0      0.00%     65.10% # Class of committed instruction
system.cpu0.op_class_0::SimdMisc                    0      0.00%     65.10% # Class of committed instruction
system.cpu0.op_class_0::SimdMult                    0      0.00%     65.10% # Class of committed instruction
system.cpu0.op_class_0::SimdMultAcc                 0      0.00%     65.10% # Class of committed instruction
system.cpu0.op_class_0::SimdShift                   0      0.00%     65.10% # Class of committed instruction
system.cpu0.op_class_0::SimdShiftAcc                0      0.00%     65.10% # Class of committed instruction
system.cpu0.op_class_0::SimdDiv                     0      0.00%     65.10% # Class of committed instruction
system.cpu0.op_class_0::SimdSqrt                    0      0.00%     65.10% # Class of committed instruction
system.cpu0.op_class_0::SimdFloatAdd                0      0.00%     65.10% # Class of committed instruction
system.cpu0.op_class_0::SimdFloatAlu                0      0.00%     65.10% # Class of committed instruction
system.cpu0.op_class_0::SimdFloatCmp                0      0.00%     65.10% # Class of committed instruction
system.cpu0.op_class_0::SimdFloatCvt                0      0.00%     65.10% # Class of committed instruction
system.cpu0.op_class_0::SimdFloatDiv                0      0.00%     65.10% # Class of committed instruction
system.cpu0.op_class_0::SimdFloatMisc               0      0.00%     65.10% # Class of committed instruction
system.cpu0.op_class_0::SimdFloatMult               0      0.00%     65.10% # Class of committed instruction
system.cpu0.op_class_0::SimdFloatMultAcc            0      0.00%     65.10% # Class of committed instruction
system.cpu0.op_class_0::SimdFloatSqrt               0      0.00%     65.10% # Class of committed instruction
system.cpu0.op_class_0::SimdReduceAdd               0      0.00%     65.10% # Class of committed instruction
system.cpu0.op_class_0::SimdReduceAlu               0      0.00%     65.10% # Class of committed instruction
system.cpu0.op_class_0::SimdReduceCmp               0      0.00%     65.10% # Class of committed instruction
system.cpu0.op_class_0::SimdFloatReduceAdd            0      0.00%     65.10% # Class of committed instruction
system.cpu0.op_class_0::SimdFloatReduceCmp            0      0.00%     65.10% # Class of committed instruction
system.cpu0.op_class_0::SimdAes                     0      0.00%     65.10% # Class of committed instruction
system.cpu0.op_class_0::SimdAesMix                  0      0.00%     65.10% # Class of committed instruction
system.cpu0.op_class_0::SimdSha1Hash                0      0.00%     65.10% # Class of committed instruction
system.cpu0.op_class_0::SimdSha1Hash2               0      0.00%     65.10% # Class of committed instruction
system.cpu0.op_class_0::SimdSha256Hash              0      0.00%     65.10% # Class of committed instruction
system.cpu0.op_class_0::SimdSha256Hash2             0      0.00%     65.10% # Class of committed instruction
system.cpu0.op_class_0::SimdShaSigma2               0      0.00%     65.10% # Class of committed instruction
system.cpu0.op_class_0::SimdShaSigma3               0      0.00%     65.10% # Class of committed instruction
system.cpu0.op_class_0::SimdPredAlu                 0      0.00%     65.10% # Class of committed instruction
system.cpu0.op_class_0::MemRead                161921     17.98%     83.07% # Class of committed instruction
system.cpu0.op_class_0::MemWrite               152464     16.93%    100.00% # Class of committed instruction
system.cpu0.op_class_0::FloatMemRead                0      0.00%    100.00% # Class of committed instruction
system.cpu0.op_class_0::FloatMemWrite               0      0.00%    100.00% # Class of committed instruction
system.cpu0.op_class_0::IprAccess                   0      0.00%    100.00% # Class of committed instruction
system.cpu0.op_class_0::InstPrefetch                0      0.00%    100.00% # Class of committed instruction
system.cpu0.op_class_0::total                  900805                       # Class of committed instruction
system.cpu0.quiesceCycles                   544950251                       # Total number of cycles that CPU has spent quiesced or waiting for an interrupt
system.cpu0.tickCycles                        1256949                       # Number of cycles that the object actually ticked
system.cpu1.branchPred.BTBCorrect                   0                       # Number of correct BTB predictions (this stat may not work properly.
system.cpu1.branchPred.BTBHitPct            17.617783                       # BTB Hit Percentage
system.cpu1.branchPred.BTBHits               12943187                       # Number of BTB hits
system.cpu1.branchPred.BTBLookups            73466605                       # Number of BTB lookups
system.cpu1.branchPred.RASInCorrect             66482                       # Number of incorrect RAS predictions.
system.cpu1.branchPred.condIncorrect         13229268                       # Number of conditional branches incorrect
system.cpu1.branchPred.condPredicted         50046752                       # Number of conditional branches predicted
system.cpu1.branchPred.indirectHits             41552                       # Number of indirect target hits.
system.cpu1.branchPred.indirectLookups          74386                       # Number of indirect predictor lookups.
system.cpu1.branchPred.indirectMisses           32834                       # Number of indirect misses.
system.cpu1.branchPred.lookups               93382695                       # Number of BP lookups
system.cpu1.branchPred.usedRAS               16249744                       # Number of times the RAS was used to get a target.
system.cpu1.branchPredindirectMispredicted         3946                       # Number of mispredicted indirect branches.
system.cpu1.committedInsts                  274013302                       # Number of instructions committed
system.cpu1.committedOps                    348360243                       # Number of ops (including micro ops) committed
system.cpu1.cpi                              1.988735                       # CPI: cycles per instruction
system.cpu1.dcache.prefetcher.num_hwpf_issued         5634                       # number of hwpf issued
system.cpu1.dcache.prefetcher.pfBufferHit         2172                       # number of redundant prefetches already in prefetch queue
system.cpu1.dcache.prefetcher.pfIdentified        10339                       # number of prefetch candidates identified
system.cpu1.dcache.prefetcher.pfInCache             0                       # number of redundant prefetches already in cache/mshr dropped
system.cpu1.dcache.prefetcher.pfRemovedFull          299                       # number of prefetches dropped due to prefetch queue size
system.cpu1.dcache.prefetcher.pfSpanPage          757                       # number of prefetches that crossed the page
system.cpu1.discardedOps                     86545401                       # Number of ops (including micro ops) which were discarded before commit
system.cpu1.dtb.accesses                     75978426                       # DTB accesses
system.cpu1.dtb.align_faults                        1                       # Number of TLB faults due to alignment restrictions
system.cpu1.dtb.domain_faults                       0                       # Number of TLB faults due to domain restrictions
system.cpu1.dtb.flush_entries                      11                       # Number of entries that have been flushed from TLB
system.cpu1.dtb.flush_tlb                           0                       # Number of times complete TLB was flushed
system.cpu1.dtb.flush_tlb_asid                      3                       # Number of times TLB was flushed by ASID
system.cpu1.dtb.flush_tlb_mva                       0                       # Number of times TLB was flushed by MVA
system.cpu1.dtb.flush_tlb_mva_asid                141                       # Number of times TLB was flushed by MVA & ASID
system.cpu1.dtb.hits                         75937700                       # DTB hits
system.cpu1.dtb.inst_accesses                       0                       # ITB inst accesses
system.cpu1.dtb.inst_hits                           0                       # ITB inst hits
system.cpu1.dtb.inst_misses                         0                       # ITB inst misses
system.cpu1.dtb.misses                          40726                       # DTB misses
system.cpu1.dtb.perms_faults                      404                       # Number of TLB faults due to permissions restrictions
system.cpu1.dtb.prefetch_faults                   277                       # Number of TLB faults due to prefetch
system.cpu1.dtb.read_accesses                37516766                       # DTB read accesses
system.cpu1.dtb.read_hits                    37478945                       # DTB read hits
system.cpu1.dtb.read_misses                     37821                       # DTB read misses
system.cpu1.dtb.stage2_mmu.stage2_tlb.accesses            0                       # DTB accesses
system.cpu1.dtb.stage2_mmu.stage2_tlb.align_faults            0                       # Number of TLB faults due to alignment restrictions
system.cpu1.dtb.stage2_mmu.stage2_tlb.domain_faults            0                       # Number of TLB faults due to domain restrictions
system.cpu1.dtb.stage2_mmu.stage2_tlb.flush_entries            0                       # Number of entries that have been flushed from TLB
system.cpu1.dtb.stage2_mmu.stage2_tlb.flush_tlb            0                       # Number of times complete TLB was flushed
system.cpu1.dtb.stage2_mmu.stage2_tlb.flush_tlb_asid            0                       # Number of times TLB was flushed by ASID
system.cpu1.dtb.stage2_mmu.stage2_tlb.flush_tlb_mva            0                       # Number of times TLB was flushed by MVA
system.cpu1.dtb.stage2_mmu.stage2_tlb.flush_tlb_mva_asid            0                       # Number of times TLB was flushed by MVA & ASID
system.cpu1.dtb.stage2_mmu.stage2_tlb.hits            0                       # DTB hits
system.cpu1.dtb.stage2_mmu.stage2_tlb.inst_accesses            0                       # ITB inst accesses
system.cpu1.dtb.stage2_mmu.stage2_tlb.inst_hits            0                       # ITB inst hits
system.cpu1.dtb.stage2_mmu.stage2_tlb.inst_misses            0                       # ITB inst misses
system.cpu1.dtb.stage2_mmu.stage2_tlb.misses            0                       # DTB misses
system.cpu1.dtb.stage2_mmu.stage2_tlb.perms_faults            0                       # Number of TLB faults due to permissions restrictions
system.cpu1.dtb.stage2_mmu.stage2_tlb.prefetch_faults            0                       # Number of TLB faults due to prefetch
system.cpu1.dtb.stage2_mmu.stage2_tlb.read_accesses            0                       # DTB read accesses
system.cpu1.dtb.stage2_mmu.stage2_tlb.read_hits            0                       # DTB read hits
system.cpu1.dtb.stage2_mmu.stage2_tlb.read_misses            0                       # DTB read misses
system.cpu1.dtb.stage2_mmu.stage2_tlb.walker.walkRequestOrigin_Requested::Data            0                       # Table walker requests started/completed, data/inst
system.cpu1.dtb.stage2_mmu.stage2_tlb.walker.walkRequestOrigin_Requested::Inst            0                       # Table walker requests started/completed, data/inst
system.cpu1.dtb.stage2_mmu.stage2_tlb.walker.walkRequestOrigin_Requested::total            0                       # Table walker requests started/completed, data/inst
system.cpu1.dtb.stage2_mmu.stage2_tlb.walker.walkRequestOrigin_Completed::Data            0                       # Table walker requests started/completed, data/inst
system.cpu1.dtb.stage2_mmu.stage2_tlb.walker.walkRequestOrigin_Completed::Inst            0                       # Table walker requests started/completed, data/inst
system.cpu1.dtb.stage2_mmu.stage2_tlb.walker.walkRequestOrigin_Completed::total            0                       # Table walker requests started/completed, data/inst
system.cpu1.dtb.stage2_mmu.stage2_tlb.walker.walkRequestOrigin::total            0                       # Table walker requests started/completed, data/inst
system.cpu1.dtb.stage2_mmu.stage2_tlb.walker.walks            0                       # Table walker walks requested
system.cpu1.dtb.stage2_mmu.stage2_tlb.write_accesses            0                       # DTB write accesses
system.cpu1.dtb.stage2_mmu.stage2_tlb.write_hits            0                       # DTB write hits
system.cpu1.dtb.stage2_mmu.stage2_tlb.write_misses            0                       # DTB write misses
system.cpu1.dtb.walker.walkCompletionTime::samples        18960                       # Table walker service (enqueue to completion) latency
system.cpu1.dtb.walker.walkCompletionTime::mean 13071.057911                       # Table walker service (enqueue to completion) latency
system.cpu1.dtb.walker.walkCompletionTime::gmean 12652.295481                       # Table walker service (enqueue to completion) latency
system.cpu1.dtb.walker.walkCompletionTime::stdev  4236.194536                       # Table walker service (enqueue to completion) latency
system.cpu1.dtb.walker.walkCompletionTime::0-8191           21      0.11%      0.11% # Table walker service (enqueue to completion) latency
system.cpu1.dtb.walker.walkCompletionTime::8192-16383        18352     96.79%     96.90% # Table walker service (enqueue to completion) latency
system.cpu1.dtb.walker.walkCompletionTime::16384-24575          245      1.29%     98.20% # Table walker service (enqueue to completion) latency
system.cpu1.dtb.walker.walkCompletionTime::24576-32767          229      1.21%     99.40% # Table walker service (enqueue to completion) latency
system.cpu1.dtb.walker.walkCompletionTime::32768-40959           59      0.31%     99.72% # Table walker service (enqueue to completion) latency
system.cpu1.dtb.walker.walkCompletionTime::49152-57343           44      0.23%     99.95% # Table walker service (enqueue to completion) latency
system.cpu1.dtb.walker.walkCompletionTime::57344-65535            6      0.03%     99.98% # Table walker service (enqueue to completion) latency
system.cpu1.dtb.walker.walkCompletionTime::90112-98303            1      0.01%     99.98% # Table walker service (enqueue to completion) latency
system.cpu1.dtb.walker.walkCompletionTime::98304-106495            2      0.01%     99.99% # Table walker service (enqueue to completion) latency
system.cpu1.dtb.walker.walkCompletionTime::122880-131071            1      0.01%    100.00% # Table walker service (enqueue to completion) latency
system.cpu1.dtb.walker.walkCompletionTime::total        18960                       # Table walker service (enqueue to completion) latency
system.cpu1.dtb.walker.walkPageSizes::4K        18802     99.17%     99.17% # Table walker page sizes translated
system.cpu1.dtb.walker.walkPageSizes::2M          158      0.83%    100.00% # Table walker page sizes translated
system.cpu1.dtb.walker.walkPageSizes::total        18960                       # Table walker page sizes translated
system.cpu1.dtb.walker.walkRequestOrigin_Requested::Data        40726                       # Table walker requests started/completed, data/inst
system.cpu1.dtb.walker.walkRequestOrigin_Requested::Inst            0                       # Table walker requests started/completed, data/inst
system.cpu1.dtb.walker.walkRequestOrigin_Requested::total        40726                       # Table walker requests started/completed, data/inst
system.cpu1.dtb.walker.walkRequestOrigin_Completed::Data        18960                       # Table walker requests started/completed, data/inst
system.cpu1.dtb.walker.walkRequestOrigin_Completed::Inst            0                       # Table walker requests started/completed, data/inst
system.cpu1.dtb.walker.walkRequestOrigin_Completed::total        18960                       # Table walker requests started/completed, data/inst
system.cpu1.dtb.walker.walkRequestOrigin::total        59686                       # Table walker requests started/completed, data/inst
system.cpu1.dtb.walker.walkWaitTime::samples        40726                       # Table walker wait (enqueue to first request) latency
system.cpu1.dtb.walker.walkWaitTime::0          40726    100.00%    100.00% # Table walker wait (enqueue to first request) latency
system.cpu1.dtb.walker.walkWaitTime::total        40726                       # Table walker wait (enqueue to first request) latency
system.cpu1.dtb.walker.walks                    40726                       # Table walker walks requested
system.cpu1.dtb.walker.walksLong                40726                       # Table walker walks initiated with long descriptors
system.cpu1.dtb.walker.walksLongTerminationLevel::Level2          158                       # Level at which table walker walks with long descriptors terminate
system.cpu1.dtb.walker.walksLongTerminationLevel::Level3        18802                       # Level at which table walker walks with long descriptors terminate
system.cpu1.dtb.write_accesses               38461660                       # DTB write accesses
system.cpu1.dtb.write_hits                   38458755                       # DTB write hits
system.cpu1.dtb.write_misses                     2905                       # DTB write misses
system.cpu1.fetch2.amo_instructions                 0                       # Number of memory atomic instructions successfully decoded
system.cpu1.fetch2.fp_instructions                  0                       # Number of floating point instructions successfully decoded
system.cpu1.fetch2.int_instructions         549087032                       # Number of integer instructions successfully decoded
system.cpu1.fetch2.load_instructions         11626263                       # Number of memory load instructions successfully decoded
system.cpu1.fetch2.store_instructions         3798526                       # Number of memory store instructions successfully decoded
system.cpu1.fetch2.vec_instructions                 0                       # Number of SIMD instructions successfully decoded
system.cpu1.idleCycles                       25225381                       # Total number of cycles that the object has spent stopped
system.cpu1.ipc                              0.502832                       # IPC: instructions per cycle
system.cpu1.itb.accesses                    162367622                       # DTB accesses
system.cpu1.itb.align_faults                        0                       # Number of TLB faults due to alignment restrictions
system.cpu1.itb.domain_faults                       0                       # Number of TLB faults due to domain restrictions
system.cpu1.itb.flush_entries                       8                       # Number of entries that have been flushed from TLB
system.cpu1.itb.flush_tlb                           0                       # Number of times complete TLB was flushed
system.cpu1.itb.flush_tlb_asid                      3                       # Number of times TLB was flushed by ASID
system.cpu1.itb.flush_tlb_mva                       0                       # Number of times TLB was flushed by MVA
system.cpu1.itb.flush_tlb_mva_asid                141                       # Number of times TLB was flushed by MVA & ASID
system.cpu1.itb.hits                        162296241                       # DTB hits
system.cpu1.itb.inst_accesses               162367622                       # ITB inst accesses
system.cpu1.itb.inst_hits                   162296241                       # ITB inst hits
system.cpu1.itb.inst_misses                     71381                       # ITB inst misses
system.cpu1.itb.misses                          71381                       # DTB misses
system.cpu1.itb.perms_faults                     1008                       # Number of TLB faults due to permissions restrictions
system.cpu1.itb.prefetch_faults                     0                       # Number of TLB faults due to prefetch
system.cpu1.itb.read_accesses                       0                       # DTB read accesses
system.cpu1.itb.read_hits                           0                       # DTB read hits
system.cpu1.itb.read_misses                         0                       # DTB read misses
system.cpu1.itb.stage2_mmu.stage2_tlb.accesses            0                       # DTB accesses
system.cpu1.itb.stage2_mmu.stage2_tlb.align_faults            0                       # Number of TLB faults due to alignment restrictions
system.cpu1.itb.stage2_mmu.stage2_tlb.domain_faults            0                       # Number of TLB faults due to domain restrictions
system.cpu1.itb.stage2_mmu.stage2_tlb.flush_entries            0                       # Number of entries that have been flushed from TLB
system.cpu1.itb.stage2_mmu.stage2_tlb.flush_tlb            0                       # Number of times complete TLB was flushed
system.cpu1.itb.stage2_mmu.stage2_tlb.flush_tlb_asid            0                       # Number of times TLB was flushed by ASID
system.cpu1.itb.stage2_mmu.stage2_tlb.flush_tlb_mva            0                       # Number of times TLB was flushed by MVA
system.cpu1.itb.stage2_mmu.stage2_tlb.flush_tlb_mva_asid            0                       # Number of times TLB was flushed by MVA & ASID
system.cpu1.itb.stage2_mmu.stage2_tlb.hits            0                       # DTB hits
system.cpu1.itb.stage2_mmu.stage2_tlb.inst_accesses            0                       # ITB inst accesses
system.cpu1.itb.stage2_mmu.stage2_tlb.inst_hits            0                       # ITB inst hits
system.cpu1.itb.stage2_mmu.stage2_tlb.inst_misses            0                       # ITB inst misses
system.cpu1.itb.stage2_mmu.stage2_tlb.misses            0                       # DTB misses
system.cpu1.itb.stage2_mmu.stage2_tlb.perms_faults            0                       # Number of TLB faults due to permissions restrictions
system.cpu1.itb.stage2_mmu.stage2_tlb.prefetch_faults            0                       # Number of TLB faults due to prefetch
system.cpu1.itb.stage2_mmu.stage2_tlb.read_accesses            0                       # DTB read accesses
system.cpu1.itb.stage2_mmu.stage2_tlb.read_hits            0                       # DTB read hits
system.cpu1.itb.stage2_mmu.stage2_tlb.read_misses            0                       # DTB read misses
system.cpu1.itb.stage2_mmu.stage2_tlb.walker.walkRequestOrigin_Requested::Data            0                       # Table walker requests started/completed, data/inst
system.cpu1.itb.stage2_mmu.stage2_tlb.walker.walkRequestOrigin_Requested::Inst            0                       # Table walker requests started/completed, data/inst
system.cpu1.itb.stage2_mmu.stage2_tlb.walker.walkRequestOrigin_Requested::total            0                       # Table walker requests started/completed, data/inst
system.cpu1.itb.stage2_mmu.stage2_tlb.walker.walkRequestOrigin_Completed::Data            0                       # Table walker requests started/completed, data/inst
system.cpu1.itb.stage2_mmu.stage2_tlb.walker.walkRequestOrigin_Completed::Inst            0                       # Table walker requests started/completed, data/inst
system.cpu1.itb.stage2_mmu.stage2_tlb.walker.walkRequestOrigin_Completed::total            0                       # Table walker requests started/completed, data/inst
system.cpu1.itb.stage2_mmu.stage2_tlb.walker.walkRequestOrigin::total            0                       # Table walker requests started/completed, data/inst
system.cpu1.itb.stage2_mmu.stage2_tlb.walker.walks            0                       # Table walker walks requested
system.cpu1.itb.stage2_mmu.stage2_tlb.write_accesses            0                       # DTB write accesses
system.cpu1.itb.stage2_mmu.stage2_tlb.write_hits            0                       # DTB write hits
system.cpu1.itb.stage2_mmu.stage2_tlb.write_misses            0                       # DTB write misses
system.cpu1.itb.walker.walkCompletionTime::samples        66115                       # Table walker service (enqueue to completion) latency
system.cpu1.itb.walker.walkCompletionTime::mean 11928.654314                       # Table walker service (enqueue to completion) latency
system.cpu1.itb.walker.walkCompletionTime::gmean 11596.088314                       # Table walker service (enqueue to completion) latency
system.cpu1.itb.walker.walkCompletionTime::stdev  3726.041876                       # Table walker service (enqueue to completion) latency
system.cpu1.itb.walker.walkCompletionTime::4096-8191          170      0.26%      0.26% # Table walker service (enqueue to completion) latency
system.cpu1.itb.walker.walkCompletionTime::8192-12287        55485     83.92%     84.18% # Table walker service (enqueue to completion) latency
system.cpu1.itb.walker.walkCompletionTime::12288-16383         8070     12.21%     96.39% # Table walker service (enqueue to completion) latency
system.cpu1.itb.walker.walkCompletionTime::16384-20479            1      0.00%     96.39% # Table walker service (enqueue to completion) latency
system.cpu1.itb.walker.walkCompletionTime::20480-24575          519      0.78%     97.17% # Table walker service (enqueue to completion) latency
system.cpu1.itb.walker.walkCompletionTime::24576-28671         1768      2.67%     99.85% # Table walker service (enqueue to completion) latency
system.cpu1.itb.walker.walkCompletionTime::53248-57343            2      0.00%     99.85% # Table walker service (enqueue to completion) latency
system.cpu1.itb.walker.walkCompletionTime::57344-61439          100      0.15%    100.00% # Table walker service (enqueue to completion) latency
system.cpu1.itb.walker.walkCompletionTime::total        66115                       # Table walker service (enqueue to completion) latency
system.cpu1.itb.walker.walkPageSizes::4K        65945     99.74%     99.74% # Table walker page sizes translated
system.cpu1.itb.walker.walkPageSizes::2M          170      0.26%    100.00% # Table walker page sizes translated
system.cpu1.itb.walker.walkPageSizes::total        66115                       # Table walker page sizes translated
system.cpu1.itb.walker.walkRequestOrigin_Requested::Data            0                       # Table walker requests started/completed, data/inst
system.cpu1.itb.walker.walkRequestOrigin_Requested::Inst        71381                       # Table walker requests started/completed, data/inst
system.cpu1.itb.walker.walkRequestOrigin_Requested::total        71381                       # Table walker requests started/completed, data/inst
system.cpu1.itb.walker.walkRequestOrigin_Completed::Data            0                       # Table walker requests started/completed, data/inst
system.cpu1.itb.walker.walkRequestOrigin_Completed::Inst        66115                       # Table walker requests started/completed, data/inst
system.cpu1.itb.walker.walkRequestOrigin_Completed::total        66115                       # Table walker requests started/completed, data/inst
system.cpu1.itb.walker.walkRequestOrigin::total       137496                       # Table walker requests started/completed, data/inst
system.cpu1.itb.walker.walkWaitTime::samples        71381                       # Table walker wait (enqueue to first request) latency
system.cpu1.itb.walker.walkWaitTime::0          71381    100.00%    100.00% # Table walker wait (enqueue to first request) latency
system.cpu1.itb.walker.walkWaitTime::total        71381                       # Table walker wait (enqueue to first request) latency
system.cpu1.itb.walker.walks                    71381                       # Table walker walks requested
system.cpu1.itb.walker.walksLong                71381                       # Table walker walks initiated with long descriptors
system.cpu1.itb.walker.walksLongTerminationLevel::Level2          170                       # Level at which table walker walks with long descriptors terminate
system.cpu1.itb.walker.walksLongTerminationLevel::Level3        65945                       # Level at which table walker walks with long descriptors terminate
system.cpu1.itb.write_accesses                      0                       # DTB write accesses
system.cpu1.itb.write_hits                          0                       # DTB write hits
system.cpu1.itb.write_misses                        0                       # DTB write misses
system.cpu1.kern.inst.arm                           0                       # number of arm instructions executed
system.cpu1.kern.inst.quiesce                     284                       # number of quiesce instructions executed
system.cpu1.numCycles                       544939824                       # number of cpu cycles simulated
system.cpu1.numFetchSuspends                      284                       # Number of times Execute suspended instruction fetching
system.cpu1.numWorkItemsCompleted                   0                       # number of work items this cpu completed
system.cpu1.numWorkItemsStarted                     0                       # number of work items this cpu started
system.cpu1.op_class_0::No_OpClass                  0      0.00%      0.00% # Class of committed instruction
system.cpu1.op_class_0::IntAlu              274082425     78.68%     78.68% # Class of committed instruction
system.cpu1.op_class_0::IntMult               1860365      0.53%     79.21% # Class of committed instruction
system.cpu1.op_class_0::IntDiv                   2147      0.00%     79.21% # Class of committed instruction
system.cpu1.op_class_0::FloatAdd                    0      0.00%     79.21% # Class of committed instruction
system.cpu1.op_class_0::FloatCmp                    0      0.00%     79.21% # Class of committed instruction
system.cpu1.op_class_0::FloatCvt                    0      0.00%     79.21% # Class of committed instruction
system.cpu1.op_class_0::FloatMult                   0      0.00%     79.21% # Class of committed instruction
system.cpu1.op_class_0::FloatMultAcc                0      0.00%     79.21% # Class of committed instruction
system.cpu1.op_class_0::FloatDiv                    0      0.00%     79.21% # Class of committed instruction
system.cpu1.op_class_0::FloatMisc                   0      0.00%     79.21% # Class of committed instruction
system.cpu1.op_class_0::FloatSqrt                   0      0.00%     79.21% # Class of committed instruction
system.cpu1.op_class_0::SimdAdd                     0      0.00%     79.21% # Class of committed instruction
system.cpu1.op_class_0::SimdAddAcc                  0      0.00%     79.21% # Class of committed instruction
system.cpu1.op_class_0::SimdAlu                     0      0.00%     79.21% # Class of committed instruction
system.cpu1.op_class_0::SimdCmp                     0      0.00%     79.21% # Class of committed instruction
system.cpu1.op_class_0::SimdCvt                     0      0.00%     79.21% # Class of committed instruction
system.cpu1.op_class_0::SimdMisc                    0      0.00%     79.21% # Class of committed instruction
system.cpu1.op_class_0::SimdMult                    0      0.00%     79.21% # Class of committed instruction
system.cpu1.op_class_0::SimdMultAcc                 0      0.00%     79.21% # Class of committed instruction
system.cpu1.op_class_0::SimdShift                   0      0.00%     79.21% # Class of committed instruction
system.cpu1.op_class_0::SimdShiftAcc                0      0.00%     79.21% # Class of committed instruction
system.cpu1.op_class_0::SimdDiv                     0      0.00%     79.21% # Class of committed instruction
system.cpu1.op_class_0::SimdSqrt                    0      0.00%     79.21% # Class of committed instruction
system.cpu1.op_class_0::SimdFloatAdd                0      0.00%     79.21% # Class of committed instruction
system.cpu1.op_class_0::SimdFloatAlu                0      0.00%     79.21% # Class of committed instruction
system.cpu1.op_class_0::SimdFloatCmp                0      0.00%     79.21% # Class of committed instruction
system.cpu1.op_class_0::SimdFloatCvt                0      0.00%     79.21% # Class of committed instruction
system.cpu1.op_class_0::SimdFloatDiv                0      0.00%     79.21% # Class of committed instruction
system.cpu1.op_class_0::SimdFloatMisc             720      0.00%     79.21% # Class of committed instruction
system.cpu1.op_class_0::SimdFloatMult               0      0.00%     79.21% # Class of committed instruction
system.cpu1.op_class_0::SimdFloatMultAcc            0      0.00%     79.21% # Class of committed instruction
system.cpu1.op_class_0::SimdFloatSqrt               0      0.00%     79.21% # Class of committed instruction
system.cpu1.op_class_0::SimdReduceAdd               0      0.00%     79.21% # Class of committed instruction
system.cpu1.op_class_0::SimdReduceAlu               0      0.00%     79.21% # Class of committed instruction
system.cpu1.op_class_0::SimdReduceCmp               0      0.00%     79.21% # Class of committed instruction
system.cpu1.op_class_0::SimdFloatReduceAdd            0      0.00%     79.21% # Class of committed instruction
system.cpu1.op_class_0::SimdFloatReduceCmp            0      0.00%     79.21% # Class of committed instruction
system.cpu1.op_class_0::SimdAes                     0      0.00%     79.21% # Class of committed instruction
system.cpu1.op_class_0::SimdAesMix                  0      0.00%     79.21% # Class of committed instruction
system.cpu1.op_class_0::SimdSha1Hash                0      0.00%     79.21% # Class of committed instruction
system.cpu1.op_class_0::SimdSha1Hash2               0      0.00%     79.21% # Class of committed instruction
system.cpu1.op_class_0::SimdSha256Hash              0      0.00%     79.21% # Class of committed instruction
system.cpu1.op_class_0::SimdSha256Hash2             0      0.00%     79.21% # Class of committed instruction
system.cpu1.op_class_0::SimdShaSigma2               0      0.00%     79.21% # Class of committed instruction
system.cpu1.op_class_0::SimdShaSigma3               0      0.00%     79.21% # Class of committed instruction
system.cpu1.op_class_0::SimdPredAlu                 0      0.00%     79.21% # Class of committed instruction
system.cpu1.op_class_0::MemRead              34012085      9.76%     88.98% # Class of committed instruction
system.cpu1.op_class_0::MemWrite             38402501     11.02%    100.00% # Class of committed instruction
system.cpu1.op_class_0::FloatMemRead                0      0.00%    100.00% # Class of committed instruction
system.cpu1.op_class_0::FloatMemWrite               0      0.00%    100.00% # Class of committed instruction
system.cpu1.op_class_0::IprAccess                   0      0.00%    100.00% # Class of committed instruction
system.cpu1.op_class_0::InstPrefetch                0      0.00%    100.00% # Class of committed instruction
system.cpu1.op_class_0::total               348360243                       # Class of committed instruction
system.cpu1.quiesceCycles                     3117589                       # Total number of cycles that CPU has spent quiesced or waiting for an interrupt
system.cpu1.tickCycles                      519714443                       # Number of cycles that the object actually ticked
system.cpu2.branchPred.BTBCorrect                   0                       # Number of correct BTB predictions (this stat may not work properly.
system.cpu2.branchPred.BTBHitPct            27.986524                       # BTB Hit Percentage
system.cpu2.branchPred.BTBHits                  76926                       # Number of BTB hits
system.cpu2.branchPred.BTBLookups              274868                       # Number of BTB lookups
system.cpu2.branchPred.RASInCorrect              2564                       # Number of incorrect RAS predictions.
system.cpu2.branchPred.condIncorrect            40405                       # Number of conditional branches incorrect
system.cpu2.branchPred.condPredicted           201704                       # Number of conditional branches predicted
system.cpu2.branchPred.indirectHits              2593                       # Number of indirect target hits.
system.cpu2.branchPred.indirectLookups           4712                       # Number of indirect predictor lookups.
system.cpu2.branchPred.indirectMisses            2119                       # Number of indirect misses.
system.cpu2.branchPred.lookups                 341073                       # Number of BP lookups
system.cpu2.branchPred.usedRAS                  55921                       # Number of times the RAS was used to get a target.
system.cpu2.branchPredindirectMispredicted          900                       # Number of mispredicted indirect branches.
system.cpu2.committedInsts                     908127                       # Number of instructions committed
system.cpu2.committedOps                      1115928                       # Number of ops (including micro ops) committed
system.cpu2.cpi                              1.854205                       # CPI: cycles per instruction
system.cpu2.dcache.prefetcher.num_hwpf_issued         2694                       # number of hwpf issued
system.cpu2.dcache.prefetcher.pfBufferHit         1438                       # number of redundant prefetches already in prefetch queue
system.cpu2.dcache.prefetcher.pfIdentified         5642                       # number of prefetch candidates identified
system.cpu2.dcache.prefetcher.pfInCache             0                       # number of redundant prefetches already in cache/mshr dropped
system.cpu2.dcache.prefetcher.pfRemovedFull            4                       # number of prefetches dropped due to prefetch queue size
system.cpu2.dcache.prefetcher.pfSpanPage          386                       # number of prefetches that crossed the page
system.cpu2.discardedOps                       137635                       # Number of ops (including micro ops) which were discarded before commit
system.cpu2.dtb.accesses                       401883                       # DTB accesses
system.cpu2.dtb.align_faults                        1                       # Number of TLB faults due to alignment restrictions
system.cpu2.dtb.domain_faults                       0                       # Number of TLB faults due to domain restrictions
system.cpu2.dtb.flush_entries                     187                       # Number of entries that have been flushed from TLB
system.cpu2.dtb.flush_tlb                           0                       # Number of times complete TLB was flushed
system.cpu2.dtb.flush_tlb_asid                      3                       # Number of times TLB was flushed by ASID
system.cpu2.dtb.flush_tlb_mva                       0                       # Number of times TLB was flushed by MVA
system.cpu2.dtb.flush_tlb_mva_asid                141                       # Number of times TLB was flushed by MVA & ASID
system.cpu2.dtb.hits                           399940                       # DTB hits
system.cpu2.dtb.inst_accesses                       0                       # ITB inst accesses
system.cpu2.dtb.inst_hits                           0                       # ITB inst hits
system.cpu2.dtb.inst_misses                         0                       # ITB inst misses
system.cpu2.dtb.misses                           1943                       # DTB misses
system.cpu2.dtb.perms_faults                      240                       # Number of TLB faults due to permissions restrictions
system.cpu2.dtb.prefetch_faults                    47                       # Number of TLB faults due to prefetch
system.cpu2.dtb.read_accesses                  222998                       # DTB read accesses
system.cpu2.dtb.read_hits                      221367                       # DTB read hits
system.cpu2.dtb.read_misses                      1631                       # DTB read misses
system.cpu2.dtb.stage2_mmu.stage2_tlb.accesses            0                       # DTB accesses
system.cpu2.dtb.stage2_mmu.stage2_tlb.align_faults            0                       # Number of TLB faults due to alignment restrictions
system.cpu2.dtb.stage2_mmu.stage2_tlb.domain_faults            0                       # Number of TLB faults due to domain restrictions
system.cpu2.dtb.stage2_mmu.stage2_tlb.flush_entries            0                       # Number of entries that have been flushed from TLB
system.cpu2.dtb.stage2_mmu.stage2_tlb.flush_tlb            0                       # Number of times complete TLB was flushed
system.cpu2.dtb.stage2_mmu.stage2_tlb.flush_tlb_asid            0                       # Number of times TLB was flushed by ASID
system.cpu2.dtb.stage2_mmu.stage2_tlb.flush_tlb_mva            0                       # Number of times TLB was flushed by MVA
system.cpu2.dtb.stage2_mmu.stage2_tlb.flush_tlb_mva_asid            0                       # Number of times TLB was flushed by MVA & ASID
system.cpu2.dtb.stage2_mmu.stage2_tlb.hits            0                       # DTB hits
system.cpu2.dtb.stage2_mmu.stage2_tlb.inst_accesses            0                       # ITB inst accesses
system.cpu2.dtb.stage2_mmu.stage2_tlb.inst_hits            0                       # ITB inst hits
system.cpu2.dtb.stage2_mmu.stage2_tlb.inst_misses            0                       # ITB inst misses
system.cpu2.dtb.stage2_mmu.stage2_tlb.misses            0                       # DTB misses
system.cpu2.dtb.stage2_mmu.stage2_tlb.perms_faults            0                       # Number of TLB faults due to permissions restrictions
system.cpu2.dtb.stage2_mmu.stage2_tlb.prefetch_faults            0                       # Number of TLB faults due to prefetch
system.cpu2.dtb.stage2_mmu.stage2_tlb.read_accesses            0                       # DTB read accesses
system.cpu2.dtb.stage2_mmu.stage2_tlb.read_hits            0                       # DTB read hits
system.cpu2.dtb.stage2_mmu.stage2_tlb.read_misses            0                       # DTB read misses
system.cpu2.dtb.stage2_mmu.stage2_tlb.walker.walkRequestOrigin_Requested::Data            0                       # Table walker requests started/completed, data/inst
system.cpu2.dtb.stage2_mmu.stage2_tlb.walker.walkRequestOrigin_Requested::Inst            0                       # Table walker requests started/completed, data/inst
system.cpu2.dtb.stage2_mmu.stage2_tlb.walker.walkRequestOrigin_Requested::total            0                       # Table walker requests started/completed, data/inst
system.cpu2.dtb.stage2_mmu.stage2_tlb.walker.walkRequestOrigin_Completed::Data            0                       # Table walker requests started/completed, data/inst
system.cpu2.dtb.stage2_mmu.stage2_tlb.walker.walkRequestOrigin_Completed::Inst            0                       # Table walker requests started/completed, data/inst
system.cpu2.dtb.stage2_mmu.stage2_tlb.walker.walkRequestOrigin_Completed::total            0                       # Table walker requests started/completed, data/inst
system.cpu2.dtb.stage2_mmu.stage2_tlb.walker.walkRequestOrigin::total            0                       # Table walker requests started/completed, data/inst
system.cpu2.dtb.stage2_mmu.stage2_tlb.walker.walks            0                       # Table walker walks requested
system.cpu2.dtb.stage2_mmu.stage2_tlb.write_accesses            0                       # DTB write accesses
system.cpu2.dtb.stage2_mmu.stage2_tlb.write_hits            0                       # DTB write hits
system.cpu2.dtb.stage2_mmu.stage2_tlb.write_misses            0                       # DTB write misses
system.cpu2.dtb.walker.walkCompletionTime::samples          273                       # Table walker service (enqueue to completion) latency
system.cpu2.dtb.walker.walkCompletionTime::mean 18046.153846                       # Table walker service (enqueue to completion) latency
system.cpu2.dtb.walker.walkCompletionTime::gmean 16850.145168                       # Table walker service (enqueue to completion) latency
system.cpu2.dtb.walker.walkCompletionTime::stdev  7893.086308                       # Table walker service (enqueue to completion) latency
system.cpu2.dtb.walker.walkCompletionTime::8192-12287           55     20.15%     20.15% # Table walker service (enqueue to completion) latency
system.cpu2.dtb.walker.walkCompletionTime::12288-16383          145     53.11%     73.26% # Table walker service (enqueue to completion) latency
system.cpu2.dtb.walker.walkCompletionTime::20480-24575           43     15.75%     89.01% # Table walker service (enqueue to completion) latency
system.cpu2.dtb.walker.walkCompletionTime::24576-28671           17      6.23%     95.24% # Table walker service (enqueue to completion) latency
system.cpu2.dtb.walker.walkCompletionTime::32768-36863            5      1.83%     97.07% # Table walker service (enqueue to completion) latency
system.cpu2.dtb.walker.walkCompletionTime::36864-40959            1      0.37%     97.44% # Table walker service (enqueue to completion) latency
system.cpu2.dtb.walker.walkCompletionTime::40960-45055            3      1.10%     98.53% # Table walker service (enqueue to completion) latency
system.cpu2.dtb.walker.walkCompletionTime::53248-57343            2      0.73%     99.27% # Table walker service (enqueue to completion) latency
system.cpu2.dtb.walker.walkCompletionTime::57344-61439            2      0.73%    100.00% # Table walker service (enqueue to completion) latency
system.cpu2.dtb.walker.walkCompletionTime::total          273                       # Table walker service (enqueue to completion) latency
system.cpu2.dtb.walker.walkPageSizes::4K          268     98.17%     98.17% # Table walker page sizes translated
system.cpu2.dtb.walker.walkPageSizes::2M            5      1.83%    100.00% # Table walker page sizes translated
system.cpu2.dtb.walker.walkPageSizes::total          273                       # Table walker page sizes translated
system.cpu2.dtb.walker.walkRequestOrigin_Requested::Data         1943                       # Table walker requests started/completed, data/inst
system.cpu2.dtb.walker.walkRequestOrigin_Requested::Inst            0                       # Table walker requests started/completed, data/inst
system.cpu2.dtb.walker.walkRequestOrigin_Requested::total         1943                       # Table walker requests started/completed, data/inst
system.cpu2.dtb.walker.walkRequestOrigin_Completed::Data          273                       # Table walker requests started/completed, data/inst
system.cpu2.dtb.walker.walkRequestOrigin_Completed::Inst            0                       # Table walker requests started/completed, data/inst
system.cpu2.dtb.walker.walkRequestOrigin_Completed::total          273                       # Table walker requests started/completed, data/inst
system.cpu2.dtb.walker.walkRequestOrigin::total         2216                       # Table walker requests started/completed, data/inst
system.cpu2.dtb.walker.walkWaitTime::samples         1943                       # Table walker wait (enqueue to first request) latency
system.cpu2.dtb.walker.walkWaitTime::0           1943    100.00%    100.00% # Table walker wait (enqueue to first request) latency
system.cpu2.dtb.walker.walkWaitTime::total         1943                       # Table walker wait (enqueue to first request) latency
system.cpu2.dtb.walker.walks                     1943                       # Table walker walks requested
system.cpu2.dtb.walker.walksLong                 1943                       # Table walker walks initiated with long descriptors
system.cpu2.dtb.walker.walksLongTerminationLevel::Level2            5                       # Level at which table walker walks with long descriptors terminate
system.cpu2.dtb.walker.walksLongTerminationLevel::Level3          268                       # Level at which table walker walks with long descriptors terminate
system.cpu2.dtb.write_accesses                 178885                       # DTB write accesses
system.cpu2.dtb.write_hits                     178573                       # DTB write hits
system.cpu2.dtb.write_misses                      312                       # DTB write misses
system.cpu2.fetch2.amo_instructions                 0                       # Number of memory atomic instructions successfully decoded
system.cpu2.fetch2.fp_instructions                  0                       # Number of floating point instructions successfully decoded
system.cpu2.fetch2.int_instructions            867090                       # Number of integer instructions successfully decoded
system.cpu2.fetch2.load_instructions           227838                       # Number of memory load instructions successfully decoded
system.cpu2.fetch2.store_instructions           79313                       # Number of memory store instructions successfully decoded
system.cpu2.fetch2.vec_instructions                34                       # Number of SIMD instructions successfully decoded
system.cpu2.idleCycles                         205540                       # Total number of cycles that the object has spent stopped
system.cpu2.ipc                              0.539315                       # IPC: instructions per cycle
system.cpu2.itb.accesses                       477268                       # DTB accesses
system.cpu2.itb.align_faults                        0                       # Number of TLB faults due to alignment restrictions
system.cpu2.itb.domain_faults                       0                       # Number of TLB faults due to domain restrictions
system.cpu2.itb.flush_entries                     271                       # Number of entries that have been flushed from TLB
system.cpu2.itb.flush_tlb                           0                       # Number of times complete TLB was flushed
system.cpu2.itb.flush_tlb_asid                      3                       # Number of times TLB was flushed by ASID
system.cpu2.itb.flush_tlb_mva                       0                       # Number of times TLB was flushed by MVA
system.cpu2.itb.flush_tlb_mva_asid                141                       # Number of times TLB was flushed by MVA & ASID
system.cpu2.itb.hits                           476816                       # DTB hits
system.cpu2.itb.inst_accesses                  477268                       # ITB inst accesses
system.cpu2.itb.inst_hits                      476816                       # ITB inst hits
system.cpu2.itb.inst_misses                       452                       # ITB inst misses
system.cpu2.itb.misses                            452                       # DTB misses
system.cpu2.itb.perms_faults                      388                       # Number of TLB faults due to permissions restrictions
system.cpu2.itb.prefetch_faults                     0                       # Number of TLB faults due to prefetch
system.cpu2.itb.read_accesses                       0                       # DTB read accesses
system.cpu2.itb.read_hits                           0                       # DTB read hits
system.cpu2.itb.read_misses                         0                       # DTB read misses
system.cpu2.itb.stage2_mmu.stage2_tlb.accesses            0                       # DTB accesses
system.cpu2.itb.stage2_mmu.stage2_tlb.align_faults            0                       # Number of TLB faults due to alignment restrictions
system.cpu2.itb.stage2_mmu.stage2_tlb.domain_faults            0                       # Number of TLB faults due to domain restrictions
system.cpu2.itb.stage2_mmu.stage2_tlb.flush_entries            0                       # Number of entries that have been flushed from TLB
system.cpu2.itb.stage2_mmu.stage2_tlb.flush_tlb            0                       # Number of times complete TLB was flushed
system.cpu2.itb.stage2_mmu.stage2_tlb.flush_tlb_asid            0                       # Number of times TLB was flushed by ASID
system.cpu2.itb.stage2_mmu.stage2_tlb.flush_tlb_mva            0                       # Number of times TLB was flushed by MVA
system.cpu2.itb.stage2_mmu.stage2_tlb.flush_tlb_mva_asid            0                       # Number of times TLB was flushed by MVA & ASID
system.cpu2.itb.stage2_mmu.stage2_tlb.hits            0                       # DTB hits
system.cpu2.itb.stage2_mmu.stage2_tlb.inst_accesses            0                       # ITB inst accesses
system.cpu2.itb.stage2_mmu.stage2_tlb.inst_hits            0                       # ITB inst hits
system.cpu2.itb.stage2_mmu.stage2_tlb.inst_misses            0                       # ITB inst misses
system.cpu2.itb.stage2_mmu.stage2_tlb.misses            0                       # DTB misses
system.cpu2.itb.stage2_mmu.stage2_tlb.perms_faults            0                       # Number of TLB faults due to permissions restrictions
system.cpu2.itb.stage2_mmu.stage2_tlb.prefetch_faults            0                       # Number of TLB faults due to prefetch
system.cpu2.itb.stage2_mmu.stage2_tlb.read_accesses            0                       # DTB read accesses
system.cpu2.itb.stage2_mmu.stage2_tlb.read_hits            0                       # DTB read hits
system.cpu2.itb.stage2_mmu.stage2_tlb.read_misses            0                       # DTB read misses
system.cpu2.itb.stage2_mmu.stage2_tlb.walker.walkRequestOrigin_Requested::Data            0                       # Table walker requests started/completed, data/inst
system.cpu2.itb.stage2_mmu.stage2_tlb.walker.walkRequestOrigin_Requested::Inst            0                       # Table walker requests started/completed, data/inst
system.cpu2.itb.stage2_mmu.stage2_tlb.walker.walkRequestOrigin_Requested::total            0                       # Table walker requests started/completed, data/inst
system.cpu2.itb.stage2_mmu.stage2_tlb.walker.walkRequestOrigin_Completed::Data            0                       # Table walker requests started/completed, data/inst
system.cpu2.itb.stage2_mmu.stage2_tlb.walker.walkRequestOrigin_Completed::Inst            0                       # Table walker requests started/completed, data/inst
system.cpu2.itb.stage2_mmu.stage2_tlb.walker.walkRequestOrigin_Completed::total            0                       # Table walker requests started/completed, data/inst
[...]
system.cpu1.dcache.WriteReq_mshr_misses::total         8263                       # number of WriteReq MSHR misses
system.cpu1.dcache.WriteReq_mshr_uncacheable::.cpu1.data         1628                       # number of WriteReq MSHR uncacheable
system.cpu1.dcache.WriteReq_mshr_uncacheable::total         1628                       # number of WriteReq MSHR uncacheable
system.cpu1.dcache.WriteReq_mshr_miss_latency::.cpu1.data    343221942                       # number of WriteReq MSHR miss cycles
system.cpu1.dcache.WriteReq_mshr_miss_latency::total    343221942                       # number of WriteReq MSHR miss cycles
system.cpu1.dcache.WriteReq_mshr_miss_rate::.cpu1.data     0.000217                       # mshr miss rate for WriteReq accesses
system.cpu1.dcache.WriteReq_mshr_miss_rate::total     0.000217                       # mshr miss rate for WriteReq accesses
system.cpu1.dcache.WriteReq_avg_mshr_miss_latency::.cpu1.data 41537.207068                       # average WriteReq mshr miss latency
system.cpu1.dcache.WriteReq_avg_mshr_miss_latency::total 41537.207068                       # average WriteReq mshr miss latency
system.cpu1.dcache.SoftPFReq_hits::.cpu1.data          723                       # number of SoftPFReq hits
system.cpu1.dcache.SoftPFReq_hits::total          723                       # number of SoftPFReq hits
system.cpu1.dcache.SoftPFReq_misses::.cpu1.data           32                       # number of SoftPFReq misses
system.cpu1.dcache.SoftPFReq_misses::total           32                       # number of SoftPFReq misses
system.cpu1.dcache.SoftPFReq_accesses::.cpu1.data          755                       # number of SoftPFReq accesses(hits+misses)
system.cpu1.dcache.SoftPFReq_accesses::total          755                       # number of SoftPFReq accesses(hits+misses)
system.cpu1.dcache.SoftPFReq_miss_rate::.cpu1.data     0.042384                       # miss rate for SoftPFReq accesses
system.cpu1.dcache.SoftPFReq_miss_rate::total     0.042384                       # miss rate for SoftPFReq accesses
system.cpu1.dcache.SoftPFReq_mshr_misses::.cpu1.data           32                       # number of SoftPFReq MSHR misses
system.cpu1.dcache.SoftPFReq_mshr_misses::total           32                       # number of SoftPFReq MSHR misses
system.cpu1.dcache.SoftPFReq_mshr_miss_latency::.cpu1.data      2872422                       # number of SoftPFReq MSHR miss cycles
system.cpu1.dcache.SoftPFReq_mshr_miss_latency::total      2872422                       # number of SoftPFReq MSHR miss cycles
system.cpu1.dcache.SoftPFReq_mshr_miss_rate::.cpu1.data     0.042384                       # mshr miss rate for SoftPFReq accesses
system.cpu1.dcache.SoftPFReq_mshr_miss_rate::total     0.042384                       # mshr miss rate for SoftPFReq accesses
system.cpu1.dcache.SoftPFReq_avg_mshr_miss_latency::.cpu1.data 89763.187500                       # average SoftPFReq mshr miss latency
system.cpu1.dcache.SoftPFReq_avg_mshr_miss_latency::total 89763.187500                       # average SoftPFReq mshr miss latency
system.cpu1.dcache.SoftPFExReq_hits::.cpu1.data       106306                       # number of SoftPFExReq hits
system.cpu1.dcache.SoftPFExReq_hits::total       106306                       # number of SoftPFExReq hits
system.cpu1.dcache.SoftPFExReq_misses::.cpu1.data         2154                       # number of SoftPFExReq misses
system.cpu1.dcache.SoftPFExReq_misses::total         2154                       # number of SoftPFExReq misses
system.cpu1.dcache.SoftPFExReq_accesses::.cpu1.data       108460                       # number of SoftPFExReq accesses(hits+misses)
system.cpu1.dcache.SoftPFExReq_accesses::total       108460                       # number of SoftPFExReq accesses(hits+misses)
system.cpu1.dcache.SoftPFExReq_miss_rate::.cpu1.data     0.019860                       # miss rate for SoftPFExReq accesses
system.cpu1.dcache.SoftPFExReq_miss_rate::total     0.019860                       # miss rate for SoftPFExReq accesses
system.cpu1.dcache.SoftPFExReq_mshr_misses::.cpu1.data         2020                       # number of SoftPFExReq MSHR misses
system.cpu1.dcache.SoftPFExReq_mshr_misses::total         2020                       # number of SoftPFExReq MSHR misses
system.cpu1.dcache.SoftPFExReq_mshr_miss_latency::.cpu1.data     16946790                       # number of SoftPFExReq MSHR miss cycles
system.cpu1.dcache.SoftPFExReq_mshr_miss_latency::total     16946790                       # number of SoftPFExReq MSHR miss cycles
system.cpu1.dcache.SoftPFExReq_mshr_miss_rate::.cpu1.data     0.018624                       # mshr miss rate for SoftPFExReq accesses
system.cpu1.dcache.SoftPFExReq_mshr_miss_rate::total     0.018624                       # mshr miss rate for SoftPFExReq accesses
system.cpu1.dcache.SoftPFExReq_avg_mshr_miss_latency::.cpu1.data  8389.500000                       # average SoftPFExReq mshr miss latency
system.cpu1.dcache.SoftPFExReq_avg_mshr_miss_latency::total  8389.500000                       # average SoftPFExReq mshr miss latency
system.cpu1.dcache.HardPFReq_mshr_misses::.cpu1.dcache.prefetcher         2700                       # number of HardPFReq MSHR misses
system.cpu1.dcache.HardPFReq_mshr_misses::total         2700                       # number of HardPFReq MSHR misses
system.cpu1.dcache.HardPFReq_mshr_miss_latency::.cpu1.dcache.prefetcher    106033433                       # number of HardPFReq MSHR miss cycles
system.cpu1.dcache.HardPFReq_mshr_miss_latency::total    106033433                       # number of HardPFReq MSHR miss cycles
system.cpu1.dcache.HardPFReq_mshr_miss_rate::.cpu1.dcache.prefetcher          inf                       # mshr miss rate for HardPFReq accesses
system.cpu1.dcache.HardPFReq_mshr_miss_rate::total          inf                       # mshr miss rate for HardPFReq accesses
system.cpu1.dcache.HardPFReq_avg_mshr_miss_latency::.cpu1.dcache.prefetcher 39271.641852                       # average HardPFReq mshr miss latency
system.cpu1.dcache.HardPFReq_avg_mshr_miss_latency::total 39271.641852                       # average HardPFReq mshr miss latency
system.cpu1.dcache.WriteLineReq_hits::.cpu1.data         2898                       # number of WriteLineReq hits
system.cpu1.dcache.WriteLineReq_hits::total         2898                       # number of WriteLineReq hits
system.cpu1.dcache.WriteLineReq_misses::.cpu1.data         2611                       # number of WriteLineReq misses
system.cpu1.dcache.WriteLineReq_misses::total         2611                       # number of WriteLineReq misses
system.cpu1.dcache.WriteLineReq_miss_latency::.cpu1.data     76130250                       # number of WriteLineReq miss cycles
system.cpu1.dcache.WriteLineReq_miss_latency::total     76130250                       # number of WriteLineReq miss cycles
system.cpu1.dcache.WriteLineReq_accesses::.cpu1.data         5509                       # number of WriteLineReq accesses(hits+misses)
system.cpu1.dcache.WriteLineReq_accesses::total         5509                       # number of WriteLineReq accesses(hits+misses)
system.cpu1.dcache.WriteLineReq_miss_rate::.cpu1.data     0.473952                       # miss rate for WriteLineReq accesses
system.cpu1.dcache.WriteLineReq_miss_rate::total     0.473952                       # miss rate for WriteLineReq accesses
system.cpu1.dcache.WriteLineReq_avg_miss_latency::.cpu1.data 29157.506702                       # average WriteLineReq miss latency
system.cpu1.dcache.WriteLineReq_avg_miss_latency::total 29157.506702                       # average WriteLineReq miss latency
system.cpu1.dcache.WriteLineReq_mshr_hits::.cpu1.data         1066                       # number of WriteLineReq MSHR hits
system.cpu1.dcache.WriteLineReq_mshr_hits::total         1066                       # number of WriteLineReq MSHR hits
system.cpu1.dcache.WriteLineReq_mshr_misses::.cpu1.data         1545                       # number of WriteLineReq MSHR misses
system.cpu1.dcache.WriteLineReq_mshr_misses::total         1545                       # number of WriteLineReq MSHR misses
system.cpu1.dcache.WriteLineReq_mshr_miss_latency::.cpu1.data     26824980                       # number of WriteLineReq MSHR miss cycles
system.cpu1.dcache.WriteLineReq_mshr_miss_latency::total     26824980                       # number of WriteLineReq MSHR miss cycles
system.cpu1.dcache.WriteLineReq_mshr_miss_rate::.cpu1.data     0.280450                       # mshr miss rate for WriteLineReq accesses
system.cpu1.dcache.WriteLineReq_mshr_miss_rate::total     0.280450                       # mshr miss rate for WriteLineReq accesses
system.cpu1.dcache.WriteLineReq_avg_mshr_miss_latency::.cpu1.data 17362.446602                       # average WriteLineReq mshr miss latency
system.cpu1.dcache.WriteLineReq_avg_mshr_miss_latency::total 17362.446602                       # average WriteLineReq mshr miss latency
system.cpu1.dcache.LoadLockedReq_hits::.cpu1.data        92890                       # number of LoadLockedReq hits
system.cpu1.dcache.LoadLockedReq_hits::total        92890                       # number of LoadLockedReq hits
system.cpu1.dcache.LoadLockedReq_misses::.cpu1.data         1700                       # number of LoadLockedReq misses
system.cpu1.dcache.LoadLockedReq_misses::total         1700                       # number of LoadLockedReq misses
system.cpu1.dcache.LoadLockedReq_miss_latency::.cpu1.data     13655250                       # number of LoadLockedReq miss cycles
system.cpu1.dcache.LoadLockedReq_miss_latency::total     13655250                       # number of LoadLockedReq miss cycles
system.cpu1.dcache.LoadLockedReq_accesses::.cpu1.data        94590                       # number of LoadLockedReq accesses(hits+misses)
system.cpu1.dcache.LoadLockedReq_accesses::total        94590                       # number of LoadLockedReq accesses(hits+misses)
system.cpu1.dcache.LoadLockedReq_miss_rate::.cpu1.data     0.017972                       # miss rate for LoadLockedReq accesses
system.cpu1.dcache.LoadLockedReq_miss_rate::total     0.017972                       # miss rate for LoadLockedReq accesses
system.cpu1.dcache.LoadLockedReq_avg_miss_latency::.cpu1.data  8032.500000                       # average LoadLockedReq miss latency
system.cpu1.dcache.LoadLockedReq_avg_miss_latency::total  8032.500000                       # average LoadLockedReq miss latency
system.cpu1.dcache.LoadLockedReq_mshr_hits::.cpu1.data         1682                       # number of LoadLockedReq MSHR hits
system.cpu1.dcache.LoadLockedReq_mshr_hits::total         1682                       # number of LoadLockedReq MSHR hits
system.cpu1.dcache.LoadLockedReq_mshr_misses::.cpu1.data           18                       # number of LoadLockedReq MSHR misses
system.cpu1.dcache.LoadLockedReq_mshr_misses::total           18                       # number of LoadLockedReq MSHR misses
system.cpu1.dcache.LoadLockedReq_mshr_miss_latency::.cpu1.data       328440                       # number of LoadLockedReq MSHR miss cycles
system.cpu1.dcache.LoadLockedReq_mshr_miss_latency::total       328440                       # number of LoadLockedReq MSHR miss cycles
system.cpu1.dcache.LoadLockedReq_mshr_miss_rate::.cpu1.data     0.000190                       # mshr miss rate for LoadLockedReq accesses
system.cpu1.dcache.LoadLockedReq_mshr_miss_rate::total     0.000190                       # mshr miss rate for LoadLockedReq accesses
system.cpu1.dcache.LoadLockedReq_avg_mshr_miss_latency::.cpu1.data 18246.666667                       # average LoadLockedReq mshr miss latency
system.cpu1.dcache.LoadLockedReq_avg_mshr_miss_latency::total 18246.666667                       # average LoadLockedReq mshr miss latency
system.cpu1.dcache.StoreCondReq_hits::.cpu1.data        94560                       # number of StoreCondReq hits
system.cpu1.dcache.StoreCondReq_hits::total        94560                       # number of StoreCondReq hits
system.cpu1.dcache.StoreCondReq_misses::.cpu1.data           13                       # number of StoreCondReq misses
system.cpu1.dcache.StoreCondReq_misses::total           13                       # number of StoreCondReq misses
system.cpu1.dcache.StoreCondReq_miss_latency::.cpu1.data       115668                       # number of StoreCondReq miss cycles
system.cpu1.dcache.StoreCondReq_miss_latency::total       115668                       # number of StoreCondReq miss cycles
system.cpu1.dcache.StoreCondReq_accesses::.cpu1.data        94573                       # number of StoreCondReq accesses(hits+misses)
system.cpu1.dcache.StoreCondReq_accesses::total        94573                       # number of StoreCondReq accesses(hits+misses)
system.cpu1.dcache.StoreCondReq_miss_rate::.cpu1.data     0.000137                       # miss rate for StoreCondReq accesses
system.cpu1.dcache.StoreCondReq_miss_rate::total     0.000137                       # miss rate for StoreCondReq accesses
system.cpu1.dcache.StoreCondReq_avg_miss_latency::.cpu1.data  8897.538462                       # average StoreCondReq miss latency
system.cpu1.dcache.StoreCondReq_avg_miss_latency::total  8897.538462                       # average StoreCondReq miss latency
system.cpu1.dcache.StoreCondReq_mshr_misses::.cpu1.data           13                       # number of StoreCondReq MSHR misses
system.cpu1.dcache.StoreCondReq_mshr_misses::total           13                       # number of StoreCondReq MSHR misses
system.cpu1.dcache.StoreCondReq_mshr_miss_latency::.cpu1.data       106386                       # number of StoreCondReq MSHR miss cycles
system.cpu1.dcache.StoreCondReq_mshr_miss_latency::total       106386                       # number of StoreCondReq MSHR miss cycles
system.cpu1.dcache.StoreCondReq_mshr_miss_rate::.cpu1.data     0.000137                       # mshr miss rate for StoreCondReq accesses
system.cpu1.dcache.StoreCondReq_mshr_miss_rate::total     0.000137                       # mshr miss rate for StoreCondReq accesses
system.cpu1.dcache.StoreCondReq_avg_mshr_miss_latency::.cpu1.data  8183.538462                       # average StoreCondReq mshr miss latency
system.cpu1.dcache.StoreCondReq_avg_mshr_miss_latency::total  8183.538462                       # average StoreCondReq mshr miss latency
system.cpu1.dcache.CleanSharedReq_miss_latency::.cpu1.data      4075512                       # number of CleanSharedReq miss cycles
system.cpu1.dcache.CleanSharedReq_miss_latency::total      4075512                       # number of CleanSharedReq miss cycles
system.cpu1.dcache.CleanSharedReq_avg_miss_latency::.cpu1.data          inf                       # average CleanSharedReq miss latency
system.cpu1.dcache.CleanSharedReq_avg_miss_latency::total          inf                       # average CleanSharedReq miss latency
system.cpu1.dcache.CleanSharedReq_mshr_misses::.cpu1.data       216576                       # number of CleanSharedReq MSHR misses
system.cpu1.dcache.CleanSharedReq_mshr_misses::total       216576                       # number of CleanSharedReq MSHR misses
system.cpu1.dcache.CleanSharedReq_mshr_miss_latency::.cpu1.data    309717285                       # number of CleanSharedReq MSHR miss cycles
system.cpu1.dcache.CleanSharedReq_mshr_miss_latency::total    309717285                       # number of CleanSharedReq MSHR miss cycles
system.cpu1.dcache.CleanSharedReq_mshr_miss_rate::.cpu1.data          inf                       # mshr miss rate for CleanSharedReq accesses
system.cpu1.dcache.CleanSharedReq_mshr_miss_rate::total          inf                       # mshr miss rate for CleanSharedReq accesses
system.cpu1.dcache.CleanSharedReq_avg_mshr_miss_latency::.cpu1.data  1430.062819                       # average CleanSharedReq mshr miss latency
system.cpu1.dcache.CleanSharedReq_avg_mshr_miss_latency::total  1430.062819                       # average CleanSharedReq mshr miss latency
system.cpu1.dcache.prefetcher.pwrStateResidencyTicks::UNDEFINED 47149298155642704                       # Cumulative time (in ticks) in various power states
system.cpu1.dcache.tags.pwrStateResidencyTicks::UNDEFINED 47149298155642704                       # Cumulative time (in ticks) in various power states
system.cpu1.dcache.tags.tagsinuse        11535.244439                       # Cycle average of tags in use
system.cpu1.dcache.tags.total_refs           72750098                       # Total number of references to valid blocks.
system.cpu1.dcache.tags.sampled_refs            20614                       # Sample count of references to valid blocks.
system.cpu1.dcache.tags.avg_refs          3529.159697                       # Average number of references to valid blocks.
system.cpu1.dcache.tags.warmup_cycle                0                       # Cycle when the warmup percentage was hit.
system.cpu1.dcache.tags.occ_blocks::.cpu1.data  9282.114449                       # Average occupied blocks per requestor
system.cpu1.dcache.tags.occ_blocks::.cpu1.dcache.prefetcher  2253.129990                       # Average occupied blocks per requestor
system.cpu1.dcache.tags.occ_percent::.cpu1.data     0.004426                       # Average percentage of cache occupancy
system.cpu1.dcache.tags.occ_percent::.cpu1.dcache.prefetcher     0.001074                       # Average percentage of cache occupancy
system.cpu1.dcache.tags.occ_percent::total     0.005500                       # Average percentage of cache occupancy
system.cpu1.dcache.tags.occ_task_id_blocks::1022         3045                       # Occupied blocks per task id
system.cpu1.dcache.tags.occ_task_id_blocks::1024        10775                       # Occupied blocks per task id
system.cpu1.dcache.tags.age_task_id_blocks_1022::0            2                       # Occupied blocks per task id
system.cpu1.dcache.tags.age_task_id_blocks_1022::1          357                       # Occupied blocks per task id
system.cpu1.dcache.tags.age_task_id_blocks_1022::2          563                       # Occupied blocks per task id
system.cpu1.dcache.tags.age_task_id_blocks_1022::3          101                       # Occupied blocks per task id
system.cpu1.dcache.tags.age_task_id_blocks_1022::4         2022                       # Occupied blocks per task id
system.cpu1.dcache.tags.age_task_id_blocks_1024::0           27                       # Occupied blocks per task id
system.cpu1.dcache.tags.age_task_id_blocks_1024::1          359                       # Occupied blocks per task id
system.cpu1.dcache.tags.age_task_id_blocks_1024::2          981                       # Occupied blocks per task id
system.cpu1.dcache.tags.age_task_id_blocks_1024::3           81                       # Occupied blocks per task id
system.cpu1.dcache.tags.age_task_id_blocks_1024::4         9327                       # Occupied blocks per task id
system.cpu1.dcache.tags.occ_task_id_percent::1022     0.001452                       # Percentage of cache occupancy per task id
system.cpu1.dcache.tags.occ_task_id_percent::1024     0.005138                       # Percentage of cache occupancy per task id
system.cpu1.dcache.tags.tag_accesses        144897194                       # Number of tag accesses
system.cpu1.dcache.tags.data_accesses       144897194                       # Number of data accesses
system.cpu1.itb.walker.pwrStateResidencyTicks::UNDEFINED 47149298155642704                       # Cumulative time (in ticks) in various power states
system.cpu1.itb.stage2_mmu.stage2_tlb.walker.pwrStateResidencyTicks::UNDEFINED 47149298155642704                       # Cumulative time (in ticks) in various power states
system.cpu_clk_domain.clock                       714                       # Clock period in ticks
system.pci_ide.pwrStateResidencyTicks::UNDEFINED 47149298155642704                       # Cumulative time (in ticks) in various power states

---------- End Simulation Statistics   ----------
