
---------- Begin Simulation Statistics ----------
final_tick                               3245302734450                       # Number of ticks from beginning of simulation (restored from checkpoints and never reset)
host_inst_rate                             1527247257                       # Simulator instruction rate (inst/s)
host_mem_usage                                1552248                       # Number of bytes of host memory used
host_op_rate                               1833208587                       # Simulator op (including micro ops) rate (op/s)
host_seconds                                     0.03                       # Real time elapsed on the host
host_tick_rate                              372658691                       # Simulator tick rate (ticks/s)
sim_freq                                 1000000000000                       # Frequency of simulated ticks
sim_insts                                    52794769                       # Number of instructions simulated
sim_ops                                      63501691                       # Number of ops (including micro ops) simulated
sim_seconds                                  0.000013                       # Number of seconds simulated
sim_ticks                                    12914118                       # Number of ticks simulated
system.bootmem.pwrStateResidencyTicks::UNDEFINED     12962670                       # Cumulative time (in ticks) in various power states
system.bridge.pwrStateResidencyTicks::UNDEFINED     12962670                       # Cumulative time (in ticks) in various power states
system.cf0.dma_read_bytes                           0                       # Number of bytes transfered via DMA reads (not PRD).
system.cf0.dma_read_full_pages                      0                       # Number of full page size DMA reads (not PRD).
system.cf0.dma_read_txs                             0                       # Number of DMA read transactions (not PRD).
system.cf0.dma_write_bytes                          0                       # Number of bytes transfered via DMA writes.
system.cf0.dma_write_full_pages                     0                       # Number of full page size DMA writes.
system.cf0.dma_write_txs                            0                       # Number of DMA write transactions.
system.clk_domain.clock                          1000                       # Clock period in ticks
system.cpu.branchPred.BTBCorrect                    0                       # Number of correct BTB predictions (this stat may not work properly.
system.cpu.branchPred.BTBHitPct             49.022801                       # BTB Hit Percentage
system.cpu.branchPred.BTBHits                     602                       # Number of BTB hits
system.cpu.branchPred.BTBLookups                 1228                       # Number of BTB lookups
system.cpu.branchPred.RASInCorrect                 19                       # Number of incorrect RAS predictions.
system.cpu.branchPred.condIncorrect               209                       # Number of conditional branches incorrect
system.cpu.branchPred.condPredicted              1035                       # Number of conditional branches predicted
system.cpu.branchPred.indirectHits                 18                       # Number of indirect target hits.
system.cpu.branchPred.indirectLookups              18                       # Number of indirect predictor lookups.
system.cpu.branchPred.indirectMisses                0                       # Number of indirect misses.
system.cpu.branchPred.lookups                    1750                       # Number of BP lookups
system.cpu.branchPred.usedRAS                     323                       # Number of times the RAS was used to get a target.
system.cpu.branchPredindirectMispredicted            0                       # Number of mispredicted indirect branches.
system.cpu.committedInsts                        8103                       # Number of instructions committed
system.cpu.committedOps                          8631                       # Number of ops (including micro ops) committed
system.cpu.cpi                               2.232136                       # CPI: cycles per instruction
system.cpu.dcache.LoadLockedReq_accesses::.cpu.data           12                       # number of LoadLockedReq accesses(hits+misses)
system.cpu.dcache.LoadLockedReq_accesses::total           12                       # number of LoadLockedReq accesses(hits+misses)
system.cpu.dcache.LoadLockedReq_hits::.cpu.data           12                       # number of LoadLockedReq hits
system.cpu.dcache.LoadLockedReq_hits::total           12                       # number of LoadLockedReq hits
system.cpu.dcache.ReadReq_accesses::.cpu.data         1500                       # number of ReadReq accesses(hits+misses)
system.cpu.dcache.ReadReq_accesses::total         1500                       # number of ReadReq accesses(hits+misses)
system.cpu.dcache.ReadReq_avg_miss_latency::.cpu.data        20468                       # average ReadReq miss latency
system.cpu.dcache.ReadReq_avg_miss_latency::total        20468                       # average ReadReq miss latency
system.cpu.dcache.ReadReq_avg_mshr_miss_latency::.cpu.data        17612                       # average ReadReq mshr miss latency
system.cpu.dcache.ReadReq_avg_mshr_miss_latency::total        17612                       # average ReadReq mshr miss latency
system.cpu.dcache.ReadReq_hits::.cpu.data         1491                       # number of ReadReq hits
system.cpu.dcache.ReadReq_hits::total            1491                       # number of ReadReq hits
system.cpu.dcache.ReadReq_miss_latency::.cpu.data       184212                       # number of ReadReq miss cycles
system.cpu.dcache.ReadReq_miss_latency::total       184212                       # number of ReadReq miss cycles
system.cpu.dcache.ReadReq_miss_rate::.cpu.data     0.006000                       # miss rate for ReadReq accesses
system.cpu.dcache.ReadReq_miss_rate::total     0.006000                       # miss rate for ReadReq accesses
system.cpu.dcache.ReadReq_misses::.cpu.data            9                       # number of ReadReq misses
system.cpu.dcache.ReadReq_misses::total             9                       # number of ReadReq misses
system.cpu.dcache.ReadReq_mshr_miss_latency::.cpu.data       158508                       # number of ReadReq MSHR miss cycles
system.cpu.dcache.ReadReq_mshr_miss_latency::total       158508                       # number of ReadReq MSHR miss cycles
system.cpu.dcache.ReadReq_mshr_miss_rate::.cpu.data     0.006000                       # mshr miss rate for ReadReq accesses
system.cpu.dcache.ReadReq_mshr_miss_rate::total     0.006000                       # mshr miss rate for ReadReq accesses
system.cpu.dcache.ReadReq_mshr_misses::.cpu.data            9                       # number of ReadReq MSHR misses
system.cpu.dcache.ReadReq_mshr_misses::total            9                       # number of ReadReq MSHR misses
system.cpu.dcache.StoreCondReq_accesses::.cpu.data           12                       # number of StoreCondReq accesses(hits+misses)
system.cpu.dcache.StoreCondReq_accesses::total           12                       # number of StoreCondReq accesses(hits+misses)
system.cpu.dcache.StoreCondReq_hits::.cpu.data           12                       # number of StoreCondReq hits
system.cpu.dcache.StoreCondReq_hits::total           12                       # number of StoreCondReq hits
system.cpu.dcache.WriteReq_accesses::.cpu.data          935                       # number of WriteReq accesses(hits+misses)
system.cpu.dcache.WriteReq_accesses::total          935                       # number of WriteReq accesses(hits+misses)
system.cpu.dcache.WriteReq_avg_miss_latency::.cpu.data 18888.545455                       # average WriteReq miss latency
system.cpu.dcache.WriteReq_avg_miss_latency::total 18888.545455                       # average WriteReq miss latency
system.cpu.dcache.WriteReq_avg_mshr_miss_latency::.cpu.data        17136                       # average WriteReq mshr miss latency
system.cpu.dcache.WriteReq_avg_mshr_miss_latency::total        17136                       # average WriteReq mshr miss latency
system.cpu.dcache.WriteReq_hits::.cpu.data          924                       # number of WriteReq hits
system.cpu.dcache.WriteReq_hits::total            924                       # number of WriteReq hits
system.cpu.dcache.WriteReq_miss_latency::.cpu.data       207774                       # number of WriteReq miss cycles
system.cpu.dcache.WriteReq_miss_latency::total       207774                       # number of WriteReq miss cycles
system.cpu.dcache.WriteReq_miss_rate::.cpu.data     0.011765                       # miss rate for WriteReq accesses
system.cpu.dcache.WriteReq_miss_rate::total     0.011765                       # miss rate for WriteReq accesses
system.cpu.dcache.WriteReq_misses::.cpu.data           11                       # number of WriteReq misses
system.cpu.dcache.WriteReq_misses::total           11                       # number of WriteReq misses
system.cpu.dcache.WriteReq_mshr_hits::.cpu.data            5                       # number of WriteReq MSHR hits
system.cpu.dcache.WriteReq_mshr_hits::total            5                       # number of WriteReq MSHR hits
system.cpu.dcache.WriteReq_mshr_miss_latency::.cpu.data       102816                       # number of WriteReq MSHR miss cycles
system.cpu.dcache.WriteReq_mshr_miss_latency::total       102816                       # number of WriteReq MSHR miss cycles
system.cpu.dcache.WriteReq_mshr_miss_rate::.cpu.data     0.006417                       # mshr miss rate for WriteReq accesses
system.cpu.dcache.WriteReq_mshr_miss_rate::total     0.006417                       # mshr miss rate for WriteReq accesses
system.cpu.dcache.WriteReq_mshr_misses::.cpu.data            6                       # number of WriteReq MSHR misses
system.cpu.dcache.WriteReq_mshr_misses::total            6                       # number of WriteReq MSHR misses
system.cpu.dcache.avg_blocked_cycles::no_mshrs          nan                       # average number of cycles each access was blocked
system.cpu.dcache.avg_blocked_cycles::no_targets          nan                       # average number of cycles each access was blocked
system.cpu.dcache.blocked::no_mshrs                 0                       # number of cycles access was blocked
system.cpu.dcache.blocked::no_targets               0                       # number of cycles access was blocked
system.cpu.dcache.blocked_cycles::no_mshrs            0                       # number of cycles access was blocked
system.cpu.dcache.blocked_cycles::no_targets            0                       # number of cycles access was blocked
system.cpu.dcache.demand_accesses::.cpu.data         2435                       # number of demand (read+write) accesses
system.cpu.dcache.demand_accesses::total         2435                       # number of demand (read+write) accesses
system.cpu.dcache.demand_avg_miss_latency::.cpu.data 19599.300000                       # average overall miss latency
system.cpu.dcache.demand_avg_miss_latency::total 19599.300000                       # average overall miss latency
system.cpu.dcache.demand_avg_mshr_miss_latency::.cpu.data 17421.600000                       # average overall mshr miss latency
system.cpu.dcache.demand_avg_mshr_miss_latency::total 17421.600000                       # average overall mshr miss latency
system.cpu.dcache.demand_hits::.cpu.data         2415                       # number of demand (read+write) hits
system.cpu.dcache.demand_hits::total             2415                       # number of demand (read+write) hits
system.cpu.dcache.demand_miss_latency::.cpu.data       391986                       # number of demand (read+write) miss cycles
system.cpu.dcache.demand_miss_latency::total       391986                       # number of demand (read+write) miss cycles
system.cpu.dcache.demand_miss_rate::.cpu.data     0.008214                       # miss rate for demand accesses
system.cpu.dcache.demand_miss_rate::total     0.008214                       # miss rate for demand accesses
system.cpu.dcache.demand_misses::.cpu.data           20                       # number of demand (read+write) misses
system.cpu.dcache.demand_misses::total             20                       # number of demand (read+write) misses
system.cpu.dcache.demand_mshr_hits::.cpu.data            5                       # number of demand (read+write) MSHR hits
system.cpu.dcache.demand_mshr_hits::total            5                       # number of demand (read+write) MSHR hits
system.cpu.dcache.demand_mshr_miss_latency::.cpu.data       261324                       # number of demand (read+write) MSHR miss cycles
system.cpu.dcache.demand_mshr_miss_latency::total       261324                       # number of demand (read+write) MSHR miss cycles
system.cpu.dcache.demand_mshr_miss_rate::.cpu.data     0.006160                       # mshr miss rate for demand accesses
system.cpu.dcache.demand_mshr_miss_rate::total     0.006160                       # mshr miss rate for demand accesses
system.cpu.dcache.demand_mshr_misses::.cpu.data           15                       # number of demand (read+write) MSHR misses
system.cpu.dcache.demand_mshr_misses::total           15                       # number of demand (read+write) MSHR misses
system.cpu.dcache.overall_accesses::.cpu.data         2435                       # number of overall (read+write) accesses
system.cpu.dcache.overall_accesses::total         2435                       # number of overall (read+write) accesses
system.cpu.dcache.overall_avg_miss_latency::.cpu.data 19599.300000                       # average overall miss latency
system.cpu.dcache.overall_avg_miss_latency::total 19599.300000                       # average overall miss latency
system.cpu.dcache.overall_avg_mshr_miss_latency::.cpu.data 17421.600000                       # average overall mshr miss latency
system.cpu.dcache.overall_avg_mshr_miss_latency::total 17421.600000                       # average overall mshr miss latency
system.cpu.dcache.overall_hits::.cpu.data         2415                       # number of overall hits
system.cpu.dcache.overall_hits::total            2415                       # number of overall hits
system.cpu.dcache.overall_miss_latency::.cpu.data       391986                       # number of overall miss cycles
system.cpu.dcache.overall_miss_latency::total       391986                       # number of overall miss cycles
system.cpu.dcache.overall_miss_rate::.cpu.data     0.008214                       # miss rate for overall accesses
system.cpu.dcache.overall_miss_rate::total     0.008214                       # miss rate for overall accesses
system.cpu.dcache.overall_misses::.cpu.data           20                       # number of overall misses
system.cpu.dcache.overall_misses::total            20                       # number of overall misses
system.cpu.dcache.overall_mshr_hits::.cpu.data            5                       # number of overall MSHR hits
system.cpu.dcache.overall_mshr_hits::total            5                       # number of overall MSHR hits
system.cpu.dcache.overall_mshr_miss_latency::.cpu.data       261324                       # number of overall MSHR miss cycles
system.cpu.dcache.overall_mshr_miss_latency::total       261324                       # number of overall MSHR miss cycles
system.cpu.dcache.overall_mshr_miss_rate::.cpu.data     0.006160                       # mshr miss rate for overall accesses
system.cpu.dcache.overall_mshr_miss_rate::total     0.006160                       # mshr miss rate for overall accesses
system.cpu.dcache.overall_mshr_misses::.cpu.data           15                       # number of overall MSHR misses
system.cpu.dcache.overall_mshr_misses::total           15                       # number of overall MSHR misses
system.cpu.dcache.prefetcher.num_hwpf_issued            0                       # number of hwpf issued
system.cpu.dcache.prefetcher.pfBufferHit            0                       # number of redundant prefetches already in prefetch queue
system.cpu.dcache.prefetcher.pfIdentified            0                       # number of prefetch candidates identified
system.cpu.dcache.prefetcher.pfInCache              0                       # number of redundant prefetches already in cache/mshr dropped
system.cpu.dcache.prefetcher.pfRemovedFull            0                       # number of prefetches dropped due to prefetch queue size
system.cpu.dcache.prefetcher.pfSpanPage             0                       # number of prefetches that crossed the page
system.cpu.dcache.prefetcher.pwrStateResidencyTicks::UNDEFINED     12962670                       # Cumulative time (in ticks) in various power states
system.cpu.dcache.pwrStateResidencyTicks::UNDEFINED     12962670                       # Cumulative time (in ticks) in various power states
system.cpu.dcache.replacements                     15                       # number of replacements
system.cpu.dcache.tags.age_task_id_blocks_1022::3           12                       # Occupied blocks per task id
system.cpu.dcache.tags.age_task_id_blocks_1024::0            7                       # Occupied blocks per task id
system.cpu.dcache.tags.age_task_id_blocks_1024::1            3                       # Occupied blocks per task id
system.cpu.dcache.tags.age_task_id_blocks_1024::2            1                       # Occupied blocks per task id
system.cpu.dcache.tags.age_task_id_blocks_1024::3          233                       # Occupied blocks per task id
system.cpu.dcache.tags.avg_refs             29.466667                       # Average number of references to valid blocks.
system.cpu.dcache.tags.data_accesses             4933                       # Number of data accesses
system.cpu.dcache.tags.occ_blocks::.cpu.data          244                       # Average occupied blocks per requestor
system.cpu.dcache.tags.occ_blocks::.cpu.dcache.prefetcher           12                       # Average occupied blocks per requestor
system.cpu.dcache.tags.occ_percent::.cpu.data     0.953125                       # Average percentage of cache occupancy
system.cpu.dcache.tags.occ_percent::.cpu.dcache.prefetcher     0.046875                       # Average percentage of cache occupancy
system.cpu.dcache.tags.occ_percent::total            1                       # Average percentage of cache occupancy
system.cpu.dcache.tags.occ_task_id_blocks::1022           12                       # Occupied blocks per task id
system.cpu.dcache.tags.occ_task_id_blocks::1024          244                       # Occupied blocks per task id
system.cpu.dcache.tags.occ_task_id_percent::1022     0.046875                       # Percentage of cache occupancy per task id
system.cpu.dcache.tags.occ_task_id_percent::1024     0.953125                       # Percentage of cache occupancy per task id
system.cpu.dcache.tags.pwrStateResidencyTicks::UNDEFINED     12962670                       # Cumulative time (in ticks) in various power states
system.cpu.dcache.tags.sampled_refs                15                       # Sample count of references to valid blocks.
system.cpu.dcache.tags.tag_accesses              4933                       # Number of tag accesses
system.cpu.dcache.tags.tagsinuse                  256                       # Cycle average of tags in use
system.cpu.dcache.tags.total_refs                 442                       # Total number of references to valid blocks.
system.cpu.dcache.tags.warmup_cycle                 0                       # Cycle when the warmup percentage was hit.
system.cpu.dcache.writebacks::.writebacks           12                       # number of writebacks
system.cpu.dcache.writebacks::total                12                       # number of writebacks
system.cpu.discardedOps                           584                       # Number of ops (including micro ops) which were discarded before commit
system.cpu.dstage2_mmu.stage2_tlb.accesses            0                       # DTB accesses
system.cpu.dstage2_mmu.stage2_tlb.align_faults            0                       # Number of TLB faults due to alignment restrictions
system.cpu.dstage2_mmu.stage2_tlb.domain_faults            0                       # Number of TLB faults due to domain restrictions
system.cpu.dstage2_mmu.stage2_tlb.flush_entries            0                       # Number of entries that have been flushed from TLB
system.cpu.dstage2_mmu.stage2_tlb.flush_tlb            0                       # Number of times complete TLB was flushed
system.cpu.dstage2_mmu.stage2_tlb.flush_tlb_asid            0                       # Number of times TLB was flushed by ASID
system.cpu.dstage2_mmu.stage2_tlb.flush_tlb_mva            0                       # Number of times TLB was flushed by MVA
system.cpu.dstage2_mmu.stage2_tlb.flush_tlb_mva_asid            0                       # Number of times TLB was flushed by MVA & ASID
system.cpu.dstage2_mmu.stage2_tlb.hits              0                       # DTB hits
system.cpu.dstage2_mmu.stage2_tlb.inst_accesses            0                       # ITB inst accesses
system.cpu.dstage2_mmu.stage2_tlb.inst_hits            0                       # ITB inst hits
system.cpu.dstage2_mmu.stage2_tlb.inst_misses            0                       # ITB inst misses
system.cpu.dstage2_mmu.stage2_tlb.misses            0                       # DTB misses
system.cpu.dstage2_mmu.stage2_tlb.perms_faults            0                       # Number of TLB faults due to permissions restrictions
system.cpu.dstage2_mmu.stage2_tlb.prefetch_faults            0                       # Number of TLB faults due to prefetch
system.cpu.dstage2_mmu.stage2_tlb.read_accesses            0                       # DTB read accesses
system.cpu.dstage2_mmu.stage2_tlb.read_hits            0                       # DTB read hits
system.cpu.dstage2_mmu.stage2_tlb.read_misses            0                       # DTB read misses
system.cpu.dstage2_mmu.stage2_tlb.walker.pwrStateResidencyTicks::UNDEFINED     12962670                       # Cumulative time (in ticks) in various power states
system.cpu.dstage2_mmu.stage2_tlb.walker.walkRequestOrigin_Requested::Data            0                       # Table walker requests started/completed, data/inst
system.cpu.dstage2_mmu.stage2_tlb.walker.walkRequestOrigin_Requested::Inst            0                       # Table walker requests started/completed, data/inst
system.cpu.dstage2_mmu.stage2_tlb.walker.walkRequestOrigin_Requested::total            0                       # Table walker requests started/completed, data/inst
system.cpu.dstage2_mmu.stage2_tlb.walker.walkRequestOrigin_Completed::Data            0                       # Table walker requests started/completed, data/inst
system.cpu.dstage2_mmu.stage2_tlb.walker.walkRequestOrigin_Completed::Inst            0                       # Table walker requests started/completed, data/inst
system.cpu.dstage2_mmu.stage2_tlb.walker.walkRequestOrigin_Completed::total            0                       # Table walker requests started/completed, data/inst
system.cpu.dstage2_mmu.stage2_tlb.walker.walkRequestOrigin::total            0                       # Table walker requests started/completed, data/inst
system.cpu.dstage2_mmu.stage2_tlb.walker.walks            0                       # Table walker walks requested
system.cpu.dstage2_mmu.stage2_tlb.write_accesses            0                       # DTB write accesses
system.cpu.dstage2_mmu.stage2_tlb.write_hits            0                       # DTB write hits
system.cpu.dstage2_mmu.stage2_tlb.write_misses            0                       # DTB write misses
system.cpu.dtb.accesses                          2510                       # DTB accesses
system.cpu.dtb.align_faults                         0                       # Number of TLB faults due to alignment restrictions
system.cpu.dtb.domain_faults                        0                       # Number of TLB faults due to domain restrictions
system.cpu.dtb.flush_entries                        0                       # Number of entries that have been flushed from TLB
system.cpu.dtb.flush_tlb                            0                       # Number of times complete TLB was flushed
system.cpu.dtb.flush_tlb_asid                       0                       # Number of times TLB was flushed by ASID
system.cpu.dtb.flush_tlb_mva                        0                       # Number of times TLB was flushed by MVA
system.cpu.dtb.flush_tlb_mva_asid                   0                       # Number of times TLB was flushed by MVA & ASID
system.cpu.dtb.hits                              2510                       # DTB hits
system.cpu.dtb.inst_accesses                        0                       # ITB inst accesses
system.cpu.dtb.inst_hits                            0                       # ITB inst hits
system.cpu.dtb.inst_misses                          0                       # ITB inst misses
system.cpu.dtb.misses                               0                       # DTB misses
system.cpu.dtb.perms_faults                         0                       # Number of TLB faults due to permissions restrictions
system.cpu.dtb.prefetch_faults                      0                       # Number of TLB faults due to prefetch
system.cpu.dtb.read_accesses                     1561                       # DTB read accesses
system.cpu.dtb.read_hits                         1561                       # DTB read hits
system.cpu.dtb.read_misses                          0                       # DTB read misses
system.cpu.dtb.walker.pwrStateResidencyTicks::UNDEFINED     12962670                       # Cumulative time (in ticks) in various power states
system.cpu.dtb.walker.walkRequestOrigin_Requested::Data            0                       # Table walker requests started/completed, data/inst
system.cpu.dtb.walker.walkRequestOrigin_Requested::Inst            0                       # Table walker requests started/completed, data/inst
system.cpu.dtb.walker.walkRequestOrigin_Requested::total            0                       # Table walker requests started/completed, data/inst
system.cpu.dtb.walker.walkRequestOrigin_Completed::Data            0                       # Table walker requests started/completed, data/inst
system.cpu.dtb.walker.walkRequestOrigin_Completed::Inst            0                       # Table walker requests started/completed, data/inst
system.cpu.dtb.walker.walkRequestOrigin_Completed::total            0                       # Table walker requests started/completed, data/inst
system.cpu.dtb.walker.walkRequestOrigin::total            0                       # Table walker requests started/completed, data/inst
system.cpu.dtb.walker.walks                         0                       # Table walker walks requested
system.cpu.dtb.write_accesses                     949                       # DTB write accesses
system.cpu.dtb.write_hits                         949                       # DTB write hits
system.cpu.dtb.write_misses                         0                       # DTB write misses
system.cpu.dtb_walker_cache.avg_blocked_cycles::no_mshrs          nan                       # average number of cycles each access was blocked
system.cpu.dtb_walker_cache.avg_blocked_cycles::no_targets          nan                       # average number of cycles each access was blocked
system.cpu.dtb_walker_cache.blocked::no_mshrs            0                       # number of cycles access was blocked
system.cpu.dtb_walker_cache.blocked::no_targets            0                       # number of cycles access was blocked
system.cpu.dtb_walker_cache.blocked_cycles::no_mshrs            0                       # number of cycles access was blocked
system.cpu.dtb_walker_cache.blocked_cycles::no_targets            0                       # number of cycles access was blocked
system.cpu.dtb_walker_cache.pwrStateResidencyTicks::UNDEFINED     12962670                       # Cumulative time (in ticks) in various power states
system.cpu.dtb_walker_cache.replacements            0                       # number of replacements
system.cpu.dtb_walker_cache.tags.age_task_id_blocks_1023::3           16                       # Occupied blocks per task id
system.cpu.dtb_walker_cache.tags.avg_refs          nan                       # Average number of references to valid blocks.
system.cpu.dtb_walker_cache.tags.data_accesses            0                       # Number of data accesses
system.cpu.dtb_walker_cache.tags.occ_blocks::.cpu.dtb.walker           16                       # Average occupied blocks per requestor
system.cpu.dtb_walker_cache.tags.occ_percent::.cpu.dtb.walker            1                       # Average percentage of cache occupancy
system.cpu.dtb_walker_cache.tags.occ_percent::total            1                       # Average percentage of cache occupancy
system.cpu.dtb_walker_cache.tags.occ_task_id_blocks::1023           16                       # Occupied blocks per task id
system.cpu.dtb_walker_cache.tags.occ_task_id_percent::1023            1                       # Percentage of cache occupancy per task id
system.cpu.dtb_walker_cache.tags.pwrStateResidencyTicks::UNDEFINED     12962670                       # Cumulative time (in ticks) in various power states
system.cpu.dtb_walker_cache.tags.sampled_refs            0                       # Sample count of references to valid blocks.
system.cpu.dtb_walker_cache.tags.tag_accesses            0                       # Number of tag accesses
system.cpu.dtb_walker_cache.tags.tagsinuse           16                       # Cycle average of tags in use
system.cpu.dtb_walker_cache.tags.total_refs            0                       # Total number of references to valid blocks.
system.cpu.dtb_walker_cache.tags.warmup_cycle            0                       # Cycle when the warmup percentage was hit.
system.cpu.fetch2.amo_instructions                  0                       # Number of memory atomic instructions successfully decoded
system.cpu.fetch2.fp_instructions                   0                       # Number of floating point instructions successfully decoded
system.cpu.fetch2.int_instructions               6711                       # Number of integer instructions successfully decoded
system.cpu.fetch2.load_instructions              1759                       # Number of memory load instructions successfully decoded
system.cpu.fetch2.store_instructions              850                       # Number of memory store instructions successfully decoded
system.cpu.fetch2.vec_instructions                  0                       # Number of SIMD instructions successfully decoded
system.cpu.icache.ReadReq_accesses::.cpu.inst         2915                       # number of ReadReq accesses(hits+misses)
system.cpu.icache.ReadReq_accesses::total         2915                       # number of ReadReq accesses(hits+misses)
system.cpu.icache.ReadReq_avg_miss_latency::.cpu.inst        19992                       # average ReadReq miss latency
system.cpu.icache.ReadReq_avg_miss_latency::total        19992                       # average ReadReq miss latency
system.cpu.icache.ReadReq_avg_mshr_miss_latency::.cpu.inst        17136                       # average ReadReq mshr miss latency
system.cpu.icache.ReadReq_avg_mshr_miss_latency::total        17136                       # average ReadReq mshr miss latency
system.cpu.icache.ReadReq_hits::.cpu.inst         2909                       # number of ReadReq hits
system.cpu.icache.ReadReq_hits::total            2909                       # number of ReadReq hits
system.cpu.icache.ReadReq_miss_latency::.cpu.inst       119952                       # number of ReadReq miss cycles
system.cpu.icache.ReadReq_miss_latency::total       119952                       # number of ReadReq miss cycles
system.cpu.icache.ReadReq_miss_rate::.cpu.inst     0.002058                       # miss rate for ReadReq accesses
system.cpu.icache.ReadReq_miss_rate::total     0.002058                       # miss rate for ReadReq accesses
system.cpu.icache.ReadReq_misses::.cpu.inst            6                       # number of ReadReq misses
system.cpu.icache.ReadReq_misses::total             6                       # number of ReadReq misses
system.cpu.icache.ReadReq_mshr_miss_latency::.cpu.inst       102816                       # number of ReadReq MSHR miss cycles
system.cpu.icache.ReadReq_mshr_miss_latency::total       102816                       # number of ReadReq MSHR miss cycles
system.cpu.icache.ReadReq_mshr_miss_rate::.cpu.inst     0.002058                       # mshr miss rate for ReadReq accesses
system.cpu.icache.ReadReq_mshr_miss_rate::total     0.002058                       # mshr miss rate for ReadReq accesses
system.cpu.icache.ReadReq_mshr_misses::.cpu.inst            6                       # number of ReadReq MSHR misses
system.cpu.icache.ReadReq_mshr_misses::total            6                       # number of ReadReq MSHR misses
system.cpu.icache.avg_blocked_cycles::no_mshrs          nan                       # average number of cycles each access was blocked
system.cpu.icache.avg_blocked_cycles::no_targets          nan                       # average number of cycles each access was blocked
system.cpu.icache.blocked::no_mshrs                 0                       # number of cycles access was blocked
system.cpu.icache.blocked::no_targets               0                       # number of cycles access was blocked
system.cpu.icache.blocked_cycles::no_mshrs            0                       # number of cycles access was blocked
system.cpu.icache.blocked_cycles::no_targets            0                       # number of cycles access was blocked
system.cpu.icache.demand_accesses::.cpu.inst         2915                       # number of demand (read+write) accesses
system.cpu.icache.demand_accesses::total         2915                       # number of demand (read+write) accesses
system.cpu.icache.demand_avg_miss_latency::.cpu.inst        19992                       # average overall miss latency
system.cpu.icache.demand_avg_miss_latency::total        19992                       # average overall miss latency
system.cpu.icache.demand_avg_mshr_miss_latency::.cpu.inst        17136                       # average overall mshr miss latency
system.cpu.icache.demand_avg_mshr_miss_latency::total        17136                       # average overall mshr miss latency
system.cpu.icache.demand_hits::.cpu.inst         2909                       # number of demand (read+write) hits
system.cpu.icache.demand_hits::total             2909                       # number of demand (read+write) hits
system.cpu.icache.demand_miss_latency::.cpu.inst       119952                       # number of demand (read+write) miss cycles
system.cpu.icache.demand_miss_latency::total       119952                       # number of demand (read+write) miss cycles
system.cpu.icache.demand_miss_rate::.cpu.inst     0.002058                       # miss rate for demand accesses
system.cpu.icache.demand_miss_rate::total     0.002058                       # miss rate for demand accesses
system.cpu.icache.demand_misses::.cpu.inst            6                       # number of demand (read+write) misses
system.cpu.icache.demand_misses::total              6                       # number of demand (read+write) misses
system.cpu.icache.demand_mshr_miss_latency::.cpu.inst       102816                       # number of demand (read+write) MSHR miss cycles
system.cpu.icache.demand_mshr_miss_latency::total       102816                       # number of demand (read+write) MSHR miss cycles
system.cpu.icache.demand_mshr_miss_rate::.cpu.inst     0.002058                       # mshr miss rate for demand accesses
system.cpu.icache.demand_mshr_miss_rate::total     0.002058                       # mshr miss rate for demand accesses
system.cpu.icache.demand_mshr_misses::.cpu.inst            6                       # number of demand (read+write) MSHR misses
system.cpu.icache.demand_mshr_misses::total            6                       # number of demand (read+write) MSHR misses
system.cpu.icache.overall_accesses::.cpu.inst         2915                       # number of overall (read+write) accesses
system.cpu.icache.overall_accesses::total         2915                       # number of overall (read+write) accesses
system.cpu.icache.overall_avg_miss_latency::.cpu.inst        19992                       # average overall miss latency
system.cpu.icache.overall_avg_miss_latency::total        19992                       # average overall miss latency
system.cpu.icache.overall_avg_mshr_miss_latency::.cpu.inst        17136                       # average overall mshr miss latency
system.cpu.icache.overall_avg_mshr_miss_latency::total        17136                       # average overall mshr miss latency
system.cpu.icache.overall_hits::.cpu.inst         2909                       # number of overall hits
system.cpu.icache.overall_hits::total            2909                       # number of overall hits
system.cpu.icache.overall_miss_latency::.cpu.inst       119952                       # number of overall miss cycles
system.cpu.icache.overall_miss_latency::total       119952                       # number of overall miss cycles
system.cpu.icache.overall_miss_rate::.cpu.inst     0.002058                       # miss rate for overall accesses
system.cpu.icache.overall_miss_rate::total     0.002058                       # miss rate for overall accesses
system.cpu.icache.overall_misses::.cpu.inst            6                       # number of overall misses
system.cpu.icache.overall_misses::total             6                       # number of overall misses
system.cpu.icache.overall_mshr_miss_latency::.cpu.inst       102816                       # number of overall MSHR miss cycles
system.cpu.icache.overall_mshr_miss_latency::total       102816                       # number of overall MSHR miss cycles
system.cpu.icache.overall_mshr_miss_rate::.cpu.inst     0.002058                       # mshr miss rate for overall accesses
system.cpu.icache.overall_mshr_miss_rate::total     0.002058                       # mshr miss rate for overall accesses
system.cpu.icache.overall_mshr_misses::.cpu.inst            6                       # number of overall MSHR misses
system.cpu.icache.overall_mshr_misses::total            6                       # number of overall MSHR misses
system.cpu.icache.pwrStateResidencyTicks::UNDEFINED     12962670                       # Cumulative time (in ticks) in various power states
system.cpu.icache.replacements                      6                       # number of replacements
system.cpu.icache.tags.age_task_id_blocks_1024::0            3                       # Occupied blocks per task id
system.cpu.icache.tags.age_task_id_blocks_1024::2            1                       # Occupied blocks per task id
system.cpu.icache.tags.age_task_id_blocks_1024::3          252                       # Occupied blocks per task id
system.cpu.icache.tags.avg_refs              6.833333                       # Average number of references to valid blocks.
system.cpu.icache.tags.data_accesses             5836                       # Number of data accesses
system.cpu.icache.tags.occ_blocks::.cpu.inst          256                       # Average occupied blocks per requestor
system.cpu.icache.tags.occ_percent::.cpu.inst            1                       # Average percentage of cache occupancy
system.cpu.icache.tags.occ_percent::total            1                       # Average percentage of cache occupancy
system.cpu.icache.tags.occ_task_id_blocks::1024          256                       # Occupied blocks per task id
system.cpu.icache.tags.occ_task_id_percent::1024            1                       # Percentage of cache occupancy per task id
system.cpu.icache.tags.pwrStateResidencyTicks::UNDEFINED     12962670                       # Cumulative time (in ticks) in various power states
system.cpu.icache.tags.sampled_refs                 6                       # Sample count of references to valid blocks.
system.cpu.icache.tags.tag_accesses              5836                       # Number of tag accesses
system.cpu.icache.tags.tagsinuse                  256                       # Cycle average of tags in use
system.cpu.icache.tags.total_refs                  41                       # Total number of references to valid blocks.
system.cpu.icache.tags.warmup_cycle                 0                       # Cycle when the warmup percentage was hit.
system.cpu.idleCycles                            2968                       # Total number of cycles that the object has spent stopped
system.cpu.ipc                               0.448001                       # IPC: instructions per cycle
system.cpu.istage2_mmu.stage2_tlb.accesses            0                       # DTB accesses
system.cpu.istage2_mmu.stage2_tlb.align_faults            0                       # Number of TLB faults due to alignment restrictions
system.cpu.istage2_mmu.stage2_tlb.domain_faults            0                       # Number of TLB faults due to domain restrictions
system.cpu.istage2_mmu.stage2_tlb.flush_entries            0                       # Number of entries that have been flushed from TLB
system.cpu.istage2_mmu.stage2_tlb.flush_tlb            0                       # Number of times complete TLB was flushed
system.cpu.istage2_mmu.stage2_tlb.flush_tlb_asid            0                       # Number of times TLB was flushed by ASID
system.cpu.istage2_mmu.stage2_tlb.flush_tlb_mva            0                       # Number of times TLB was flushed by MVA
system.cpu.istage2_mmu.stage2_tlb.flush_tlb_mva_asid            0                       # Number of times TLB was flushed by MVA & ASID
system.cpu.istage2_mmu.stage2_tlb.hits              0                       # DTB hits
system.cpu.istage2_mmu.stage2_tlb.inst_accesses            0                       # ITB inst accesses
system.cpu.istage2_mmu.stage2_tlb.inst_hits            0                       # ITB inst hits
system.cpu.istage2_mmu.stage2_tlb.inst_misses            0                       # ITB inst misses
system.cpu.istage2_mmu.stage2_tlb.misses            0                       # DTB misses
system.cpu.istage2_mmu.stage2_tlb.perms_faults            0                       # Number of TLB faults due to permissions restrictions
system.cpu.istage2_mmu.stage2_tlb.prefetch_faults            0                       # Number of TLB faults due to prefetch
system.cpu.istage2_mmu.stage2_tlb.read_accesses            0                       # DTB read accesses
system.cpu.istage2_mmu.stage2_tlb.read_hits            0                       # DTB read hits
system.cpu.istage2_mmu.stage2_tlb.read_misses            0                       # DTB read misses
system.cpu.istage2_mmu.stage2_tlb.walker.pwrStateResidencyTicks::UNDEFINED     12962670                       # Cumulative time (in ticks) in various power states
system.cpu.istage2_mmu.stage2_tlb.walker.walkRequestOrigin_Requested::Data            0                       # Table walker requests started/completed, data/inst
system.cpu.istage2_mmu.stage2_tlb.walker.walkRequestOrigin_Requested::Inst            0                       # Table walker requests started/completed, data/inst
system.cpu.istage2_mmu.stage2_tlb.walker.walkRequestOrigin_Requested::total            0                       # Table walker requests started/completed, data/inst
system.cpu.istage2_mmu.stage2_tlb.walker.walkRequestOrigin_Completed::Data            0                       # Table walker requests started/completed, data/inst
system.cpu.istage2_mmu.stage2_tlb.walker.walkRequestOrigin_Completed::Inst            0                       # Table walker requests started/completed, data/inst
system.cpu.istage2_mmu.stage2_tlb.walker.walkRequestOrigin_Completed::total            0                       # Table walker requests started/completed, data/inst
system.cpu.istage2_mmu.stage2_tlb.walker.walkRequestOrigin::total            0                       # Table walker requests started/completed, data/inst
system.cpu.istage2_mmu.stage2_tlb.walker.walks            0                       # Table walker walks requested
system.cpu.istage2_mmu.stage2_tlb.write_accesses            0                       # DTB write accesses
system.cpu.istage2_mmu.stage2_tlb.write_hits            0                       # DTB write hits
system.cpu.istage2_mmu.stage2_tlb.write_misses            0                       # DTB write misses
system.cpu.itb.accesses                          2927                       # DTB accesses
system.cpu.itb.align_faults                         0                       # Number of TLB faults due to alignment restrictions
system.cpu.itb.domain_faults                        0                       # Number of TLB faults due to domain restrictions
system.cpu.itb.flush_entries                        0                       # Number of entries that have been flushed from TLB
system.cpu.itb.flush_tlb                            0                       # Number of times complete TLB was flushed
system.cpu.itb.flush_tlb_asid                       0                       # Number of times TLB was flushed by ASID
system.cpu.itb.flush_tlb_mva                        0                       # Number of times TLB was flushed by MVA
system.cpu.itb.flush_tlb_mva_asid                   0                       # Number of times TLB was flushed by MVA & ASID
system.cpu.itb.hits                              2915                       # DTB hits
system.cpu.itb.inst_accesses                     2927                       # ITB inst accesses
system.cpu.itb.inst_hits                         2915                       # ITB inst hits
system.cpu.itb.inst_misses                         12                       # ITB inst misses
system.cpu.itb.misses                              12                       # DTB misses
system.cpu.itb.perms_faults                         0                       # Number of TLB faults due to permissions restrictions
system.cpu.itb.prefetch_faults                      0                       # Number of TLB faults due to prefetch
system.cpu.itb.read_accesses                        0                       # DTB read accesses
system.cpu.itb.read_hits                            0                       # DTB read hits
system.cpu.itb.read_misses                          0                       # DTB read misses
system.cpu.itb.walker.pwrStateResidencyTicks::UNDEFINED     12962670                       # Cumulative time (in ticks) in various power states
system.cpu.itb.walker.walkRequestOrigin_Requested::Data            0                       # Table walker requests started/completed, data/inst
system.cpu.itb.walker.walkRequestOrigin_Requested::Inst           12                       # Table walker requests started/completed, data/inst
system.cpu.itb.walker.walkRequestOrigin_Requested::total           12                       # Table walker requests started/completed, data/inst
system.cpu.itb.walker.walkRequestOrigin_Completed::Data            0                       # Table walker requests started/completed, data/inst
system.cpu.itb.walker.walkRequestOrigin_Completed::Inst            0                       # Table walker requests started/completed, data/inst
system.cpu.itb.walker.walkRequestOrigin_Completed::total            0                       # Table walker requests started/completed, data/inst
system.cpu.itb.walker.walkRequestOrigin::total           12                       # Table walker requests started/completed, data/inst
system.cpu.itb.walker.walkWaitTime::samples           12                       # Table walker wait (enqueue to first request) latency
system.cpu.itb.walker.walkWaitTime::0              12    100.00%    100.00% # Table walker wait (enqueue to first request) latency
system.cpu.itb.walker.walkWaitTime::total           12                       # Table walker wait (enqueue to first request) latency
system.cpu.itb.walker.walks                        12                       # Table walker walks requested
system.cpu.itb.walker.walksLong                    12                       # Table walker walks initiated with long descriptors
system.cpu.itb.write_accesses                       0                       # DTB write accesses
system.cpu.itb.write_hits                           0                       # DTB write hits
system.cpu.itb.write_misses                         0                       # DTB write misses
system.cpu.itb_walker_cache.ReadReq_accesses::.cpu.itb.walker           36                       # number of ReadReq accesses(hits+misses)
system.cpu.itb_walker_cache.ReadReq_accesses::total           36                       # number of ReadReq accesses(hits+misses)
system.cpu.itb_walker_cache.ReadReq_hits::.cpu.itb.walker           36                       # number of ReadReq hits
system.cpu.itb_walker_cache.ReadReq_hits::total           36                       # number of ReadReq hits
system.cpu.itb_walker_cache.avg_blocked_cycles::no_mshrs          nan                       # average number of cycles each access was blocked
system.cpu.itb_walker_cache.avg_blocked_cycles::no_targets          nan                       # average number of cycles each access was blocked
system.cpu.itb_walker_cache.blocked::no_mshrs            0                       # number of cycles access was blocked
system.cpu.itb_walker_cache.blocked::no_targets            0                       # number of cycles access was blocked
system.cpu.itb_walker_cache.blocked_cycles::no_mshrs            0                       # number of cycles access was blocked
system.cpu.itb_walker_cache.blocked_cycles::no_targets            0                       # number of cycles access was blocked
system.cpu.itb_walker_cache.demand_accesses::.cpu.itb.walker           36                       # number of demand (read+write) accesses
system.cpu.itb_walker_cache.demand_accesses::total           36                       # number of demand (read+write) accesses
system.cpu.itb_walker_cache.demand_hits::.cpu.itb.walker           36                       # number of demand (read+write) hits
system.cpu.itb_walker_cache.demand_hits::total           36                       # number of demand (read+write) hits
system.cpu.itb_walker_cache.overall_accesses::.cpu.itb.walker           36                       # number of overall (read+write) accesses
system.cpu.itb_walker_cache.overall_accesses::total           36                       # number of overall (read+write) accesses
system.cpu.itb_walker_cache.overall_hits::.cpu.itb.walker           36                       # number of overall hits
system.cpu.itb_walker_cache.overall_hits::total           36                       # number of overall hits
system.cpu.itb_walker_cache.pwrStateResidencyTicks::UNDEFINED     12962670                       # Cumulative time (in ticks) in various power states
system.cpu.itb_walker_cache.replacements            0                       # number of replacements
system.cpu.itb_walker_cache.tags.age_task_id_blocks_1023::3           16                       # Occupied blocks per task id
system.cpu.itb_walker_cache.tags.avg_refs          nan                       # Average number of references to valid blocks.
system.cpu.itb_walker_cache.tags.data_accesses          288                       # Number of data accesses
system.cpu.itb_walker_cache.tags.occ_blocks::.cpu.itb.walker           16                       # Average occupied blocks per requestor
system.cpu.itb_walker_cache.tags.occ_percent::.cpu.itb.walker            1                       # Average percentage of cache occupancy
system.cpu.itb_walker_cache.tags.occ_percent::total            1                       # Average percentage of cache occupancy
system.cpu.itb_walker_cache.tags.occ_task_id_blocks::1023           16                       # Occupied blocks per task id
system.cpu.itb_walker_cache.tags.occ_task_id_percent::1023            1                       # Percentage of cache occupancy per task id
system.cpu.itb_walker_cache.tags.pwrStateResidencyTicks::UNDEFINED     12962670                       # Cumulative time (in ticks) in various power states
system.cpu.itb_walker_cache.tags.sampled_refs            0                       # Sample count of references to valid blocks.
system.cpu.itb_walker_cache.tags.tag_accesses          288                       # Number of tag accesses
system.cpu.itb_walker_cache.tags.tagsinuse           16                       # Cycle average of tags in use
system.cpu.itb_walker_cache.tags.total_refs            0                       # Total number of references to valid blocks.
system.cpu.itb_walker_cache.tags.warmup_cycle            0                       # Cycle when the warmup percentage was hit.
system.cpu.kern.inst.arm                            0                       # number of arm instructions executed
system.cpu.kern.inst.quiesce                        0                       # number of quiesce instructions executed
system.cpu.numCycles                            18087                       # number of cpu cycles simulated
system.cpu.numFetchSuspends                         0                       # Number of times Execute suspended instruction fetching
system.cpu.numWorkItemsCompleted                    0                       # number of work items this cpu completed
system.cpu.numWorkItemsStarted                      0                       # number of work items this cpu started
system.cpu.op_class_0::No_OpClass                   0      0.00%      0.00% # Class of committed instruction
system.cpu.op_class_0::IntAlu                    6133     71.06%     71.06% # Class of committed instruction
system.cpu.op_class_0::IntMult                     28      0.32%     71.38% # Class of committed instruction
system.cpu.op_class_0::IntDiv                       0      0.00%     71.38% # Class of committed instruction
system.cpu.op_class_0::FloatAdd                     0      0.00%     71.38% # Class of committed instruction
system.cpu.op_class_0::FloatCmp                     0      0.00%     71.38% # Class of committed instruction
system.cpu.op_class_0::FloatCvt                     0      0.00%     71.38% # Class of committed instruction
system.cpu.op_class_0::FloatMult                    0      0.00%     71.38% # Class of committed instruction
system.cpu.op_class_0::FloatMultAcc                 0      0.00%     71.38% # Class of committed instruction
system.cpu.op_class_0::FloatDiv                     0      0.00%     71.38% # Class of committed instruction
system.cpu.op_class_0::FloatMisc                    0      0.00%     71.38% # Class of committed instruction
system.cpu.op_class_0::FloatSqrt                    0      0.00%     71.38% # Class of committed instruction
system.cpu.op_class_0::SimdAdd                      0      0.00%     71.38% # Class of committed instruction
system.cpu.op_class_0::SimdAddAcc                   0      0.00%     71.38% # Class of committed instruction
system.cpu.op_class_0::SimdAlu                      0      0.00%     71.38% # Class of committed instruction
system.cpu.op_class_0::SimdCmp                      0      0.00%     71.38% # Class of committed instruction
system.cpu.op_class_0::SimdCvt                      0      0.00%     71.38% # Class of committed instruction
system.cpu.op_class_0::SimdMisc                     0      0.00%     71.38% # Class of committed instruction
system.cpu.op_class_0::SimdMult                     0      0.00%     71.38% # Class of committed instruction
system.cpu.op_class_0::SimdMultAcc                  0      0.00%     71.38% # Class of committed instruction
system.cpu.op_class_0::SimdShift                    0      0.00%     71.38% # Class of committed instruction
system.cpu.op_class_0::SimdShiftAcc                 0      0.00%     71.38% # Class of committed instruction
system.cpu.op_class_0::SimdDiv                      0      0.00%     71.38% # Class of committed instruction
system.cpu.op_class_0::SimdSqrt                     0      0.00%     71.38% # Class of committed instruction
system.cpu.op_class_0::SimdFloatAdd                 0      0.00%     71.38% # Class of committed instruction
system.cpu.op_class_0::SimdFloatAlu                 0      0.00%     71.38% # Class of committed instruction
system.cpu.op_class_0::SimdFloatCmp                 0      0.00%     71.38% # Class of committed instruction
system.cpu.op_class_0::SimdFloatCvt                 0      0.00%     71.38% # Class of committed instruction
system.cpu.op_class_0::SimdFloatDiv                 0      0.00%     71.38% # Class of committed instruction
system.cpu.op_class_0::SimdFloatMisc                0      0.00%     71.38% # Class of committed instruction
system.cpu.op_class_0::SimdFloatMult                0      0.00%     71.38% # Class of committed instruction
system.cpu.op_class_0::SimdFloatMultAcc             0      0.00%     71.38% # Class of committed instruction
system.cpu.op_class_0::SimdFloatSqrt                0      0.00%     71.38% # Class of committed instruction
system.cpu.op_class_0::SimdReduceAdd                0      0.00%     71.38% # Class of committed instruction
system.cpu.op_class_0::SimdReduceAlu                0      0.00%     71.38% # Class of committed instruction
system.cpu.op_class_0::SimdReduceCmp                0      0.00%     71.38% # Class of committed instruction
system.cpu.op_class_0::SimdFloatReduceAdd            0      0.00%     71.38% # Class of committed instruction
system.cpu.op_class_0::SimdFloatReduceCmp            0      0.00%     71.38% # Class of committed instruction
system.cpu.op_class_0::SimdAes                      0      0.00%     71.38% # Class of committed instruction
system.cpu.op_class_0::SimdAesMix                   0      0.00%     71.38% # Class of committed instruction
system.cpu.op_class_0::SimdSha1Hash                 0      0.00%     71.38% # Class of committed instruction
system.cpu.op_class_0::SimdSha1Hash2                0      0.00%     71.38% # Class of committed instruction
system.cpu.op_class_0::SimdSha256Hash               0      0.00%     71.38% # Class of committed instruction
system.cpu.op_class_0::SimdSha256Hash2              0      0.00%     71.38% # Class of committed instruction
system.cpu.op_class_0::SimdShaSigma2                0      0.00%     71.38% # Class of committed instruction
system.cpu.op_class_0::SimdShaSigma3                0      0.00%     71.38% # Class of committed instruction
system.cpu.op_class_0::SimdPredAlu                  0      0.00%     71.38% # Class of committed instruction
system.cpu.op_class_0::MemRead                   1517     17.58%     88.96% # Class of committed instruction
system.cpu.op_class_0::MemWrite                   953     11.04%    100.00% # Class of committed instruction
system.cpu.op_class_0::FloatMemRead                 0      0.00%    100.00% # Class of committed instruction
system.cpu.op_class_0::FloatMemWrite                0      0.00%    100.00% # Class of committed instruction
system.cpu.op_class_0::IprAccess                    0      0.00%    100.00% # Class of committed instruction
system.cpu.op_class_0::InstPrefetch                 0      0.00%    100.00% # Class of committed instruction
system.cpu.op_class_0::total                     8631                       # Class of committed instruction
system.cpu.pwrStateResidencyTicks::ON        12962670                       # Cumulative time (in ticks) in various power states
system.cpu.tickCycles                           15119                       # Number of cycles that the object actually ticked
system.cpu_clk_domain.clock                       714                       # Clock period in ticks
system.cpu_voltage_domain.voltage                   1                       # Voltage in Volts
system.disk2.dma_read_bytes                         0                       # Number of bytes transfered via DMA reads (not PRD).
system.disk2.dma_read_full_pages                    0                       # Number of full page size DMA reads (not PRD).
system.disk2.dma_read_txs                           0                       # Number of DMA read transactions (not PRD).
system.disk2.dma_write_bytes                        0                       # Number of bytes transfered via DMA writes.
system.disk2.dma_write_full_pages                   0                       # Number of full page size DMA writes.
system.disk2.dma_write_txs                          0                       # Number of DMA write transactions.
system.iobus.pwrStateResidencyTicks::UNDEFINED     12962670                       # Cumulative time (in ticks) in various power states
system.iocache.avg_blocked_cycles::no_mshrs          nan                       # average number of cycles each access was blocked
system.iocache.avg_blocked_cycles::no_targets          nan                       # average number of cycles each access was blocked
system.iocache.blocked::no_mshrs                    0                       # number of cycles access was blocked
system.iocache.blocked::no_targets                  0                       # number of cycles access was blocked
system.iocache.blocked_cycles::no_mshrs             0                       # number of cycles access was blocked
system.iocache.blocked_cycles::no_targets            0                       # number of cycles access was blocked
system.iocache.pwrStateResidencyTicks::UNDEFINED     12962670                       # Cumulative time (in ticks) in various power states
system.iocache.replacements                         0                       # number of replacements
system.iocache.tags.age_task_id_blocks_1023::3           16                       # Occupied blocks per task id
system.iocache.tags.avg_refs                      nan                       # Average number of references to valid blocks.
system.iocache.tags.data_accesses                   0                       # Number of data accesses
system.iocache.tags.occ_blocks::.pci_ide           16                       # Average occupied blocks per requestor
system.iocache.tags.occ_percent::.pci_ide            1                       # Average percentage of cache occupancy
system.iocache.tags.occ_percent::total              1                       # Average percentage of cache occupancy
system.iocache.tags.occ_task_id_blocks::1023           16                       # Occupied blocks per task id
system.iocache.tags.occ_task_id_percent::1023            1                       # Percentage of cache occupancy per task id
system.iocache.tags.pwrStateResidencyTicks::UNDEFINED     12962670                       # Cumulative time (in ticks) in various power states
system.iocache.tags.sampled_refs                    0                       # Sample count of references to valid blocks.
system.iocache.tags.tag_accesses                    0                       # Number of tag accesses
system.iocache.tags.tagsinuse                      16                       # Cycle average of tags in use
system.iocache.tags.total_refs                      0                       # Total number of references to valid blocks.
system.iocache.tags.warmup_cycle                    0                       # Cycle when the warmup percentage was hit.
system.l2.ReadExReq_accesses::.cpu.data             6                       # number of ReadExReq accesses(hits+misses)
system.l2.ReadExReq_accesses::total                 6                       # number of ReadExReq accesses(hits+misses)
system.l2.ReadExReq_hits::.cpu.data                 6                       # number of ReadExReq hits
system.l2.ReadExReq_hits::total                     6                       # number of ReadExReq hits
system.l2.ReadSharedReq_accesses::.cpu.inst            6                       # number of ReadSharedReq accesses(hits+misses)
system.l2.ReadSharedReq_accesses::.cpu.data            9                       # number of ReadSharedReq accesses(hits+misses)
system.l2.ReadSharedReq_accesses::total            15                       # number of ReadSharedReq accesses(hits+misses)
system.l2.ReadSharedReq_hits::.cpu.inst             6                       # number of ReadSharedReq hits
system.l2.ReadSharedReq_hits::.cpu.data             9                       # number of ReadSharedReq hits
system.l2.ReadSharedReq_hits::total                15                       # number of ReadSharedReq hits
system.l2.WritebackDirty_accesses::.writebacks           12                       # number of WritebackDirty accesses(hits+misses)
system.l2.WritebackDirty_accesses::total           12                       # number of WritebackDirty accesses(hits+misses)
system.l2.WritebackDirty_hits::.writebacks           12                       # number of WritebackDirty hits
system.l2.WritebackDirty_hits::total               12                       # number of WritebackDirty hits
system.l2.avg_blocked_cycles::no_mshrs            nan                       # average number of cycles each access was blocked
system.l2.avg_blocked_cycles::no_targets          nan                       # average number of cycles each access was blocked
system.l2.blocked::no_mshrs                         0                       # number of cycles access was blocked
system.l2.blocked::no_targets                       0                       # number of cycles access was blocked
system.l2.blocked_cycles::no_mshrs                  0                       # number of cycles access was blocked
system.l2.blocked_cycles::no_targets                0                       # number of cycles access was blocked
system.l2.demand_accesses::.cpu.inst                6                       # number of demand (read+write) accesses
system.l2.demand_accesses::.cpu.data               15                       # number of demand (read+write) accesses
system.l2.demand_accesses::total                   21                       # number of demand (read+write) accesses
system.l2.demand_hits::.cpu.inst                    6                       # number of demand (read+write) hits
system.l2.demand_hits::.cpu.data                   15                       # number of demand (read+write) hits
system.l2.demand_hits::total                       21                       # number of demand (read+write) hits
system.l2.overall_accesses::.cpu.inst               6                       # number of overall (read+write) accesses
system.l2.overall_accesses::.cpu.data              15                       # number of overall (read+write) accesses
system.l2.overall_accesses::total                  21                       # number of overall (read+write) accesses
system.l2.overall_hits::.cpu.inst                   6                       # number of overall hits
system.l2.overall_hits::.cpu.data                  15                       # number of overall hits
system.l2.overall_hits::total                      21                       # number of overall hits
system.l2.pwrStateResidencyTicks::UNDEFINED     12962670                       # Cumulative time (in ticks) in various power states
system.l2.replacements                              0                       # number of replacements
system.l2.tags.age_task_id_blocks_1022::3          509                       # Occupied blocks per task id
system.l2.tags.age_task_id_blocks_1022::4           10                       # Occupied blocks per task id
system.l2.tags.age_task_id_blocks_1023::3           73                       # Occupied blocks per task id
system.l2.tags.age_task_id_blocks_1023::4            4                       # Occupied blocks per task id
system.l2.tags.age_task_id_blocks_1024::2            1                       # Occupied blocks per task id
system.l2.tags.age_task_id_blocks_1024::3         6400                       # Occupied blocks per task id
system.l2.tags.age_task_id_blocks_1024::4         1194                       # Occupied blocks per task id
system.l2.tags.avg_refs                           nan                       # Average number of references to valid blocks.
system.l2.tags.data_accesses                      320                       # Number of data accesses
system.l2.tags.occ_blocks::.writebacks            255                       # Average occupied blocks per requestor
system.l2.tags.occ_blocks::.cpu.dtb.walker           43                       # Average occupied blocks per requestor
system.l2.tags.occ_blocks::.cpu.itb.walker           34                       # Average occupied blocks per requestor
system.l2.tags.occ_blocks::.cpu.inst             4949                       # Average occupied blocks per requestor
system.l2.tags.occ_blocks::.cpu.data             2391                       # Average occupied blocks per requestor
system.l2.tags.occ_blocks::.cpu.dcache.prefetcher          519                       # Average occupied blocks per requestor
system.l2.tags.occ_percent::.writebacks      0.031128                       # Average percentage of cache occupancy
system.l2.tags.occ_percent::.cpu.dtb.walker     0.005249                       # Average percentage of cache occupancy
system.l2.tags.occ_percent::.cpu.itb.walker     0.004150                       # Average percentage of cache occupancy
system.l2.tags.occ_percent::.cpu.inst        0.604126                       # Average percentage of cache occupancy
system.l2.tags.occ_percent::.cpu.data        0.291870                       # Average percentage of cache occupancy
system.l2.tags.occ_percent::.cpu.dcache.prefetcher     0.063354                       # Average percentage of cache occupancy
system.l2.tags.occ_percent::total            0.999878                       # Average percentage of cache occupancy
system.l2.tags.occ_task_id_blocks::1022           519                       # Occupied blocks per task id
system.l2.tags.occ_task_id_blocks::1023            77                       # Occupied blocks per task id
system.l2.tags.occ_task_id_blocks::1024          7595                       # Occupied blocks per task id
system.l2.tags.occ_task_id_percent::1022     0.063354                       # Percentage of cache occupancy per task id
system.l2.tags.occ_task_id_percent::1023     0.009399                       # Percentage of cache occupancy per task id
system.l2.tags.occ_task_id_percent::1024     0.927124                       # Percentage of cache occupancy per task id
system.l2.tags.pwrStateResidencyTicks::UNDEFINED     12962670                       # Cumulative time (in ticks) in various power states
system.l2.tags.sampled_refs                         0                       # Sample count of references to valid blocks.
system.l2.tags.tag_accesses                       320                       # Number of tag accesses
system.l2.tags.tagsinuse                         8191                       # Cycle average of tags in use
system.l2.tags.total_refs                           0                       # Total number of references to valid blocks.
system.l2.tags.warmup_cycle                         0                       # Cycle when the warmup percentage was hit.
system.mem_ctrls.avgBusLat                        nan                       # Average bus latency per DRAM burst
system.mem_ctrls.avgGap                           nan                       # Average gap between requests
system.mem_ctrls.avgMemAccLat                     nan                       # Average memory access latency per DRAM burst
system.mem_ctrls.avgQLat                          nan                       # Average queueing delay per DRAM burst
system.mem_ctrls.avgRdBW                         0.00                       # Average DRAM read bandwidth in MiByte/s
system.mem_ctrls.avgRdBWSys                      0.00                       # Average system read bandwidth in MiByte/s
system.mem_ctrls.avgRdQLen                       2.00                       # Average read queue length when enqueuing
system.mem_ctrls.avgWrBW                         0.00                       # Average achieved write bandwidth in MiByte/s
system.mem_ctrls.avgWrBWSys                      0.00                       # Average system write bandwidth in MiByte/s
system.mem_ctrls.avgWrQLen                      25.00                       # Average write queue length when enqueuing
system.mem_ctrls.busUtil                         0.00                       # Data bus utilization in percentage
system.mem_ctrls.busUtilRead                     0.00                       # Data bus utilization in percentage for reads
system.mem_ctrls.busUtilWrite                    0.00                       # Data bus utilization in percentage for writes
system.mem_ctrls.bytesReadDRAM                      0                       # Total number of bytes read from DRAM
system.mem_ctrls.bytesReadSys                       0                       # Total read bytes from the system interface side
system.mem_ctrls.bytesReadWrQ                       0                       # Total number of bytes read from write queue
system.mem_ctrls.bytesWritten                       0                       # Total number of bytes written to DRAM
system.mem_ctrls.bytesWrittenSys                    0                       # Total written bytes from the system interface side
system.mem_ctrls.mergedWrBursts                     0                       # Number of DRAM write bursts merged with an existing one
system.mem_ctrls.neitherReadNorWriteReqs            0                       # Number of requests that are neither read nor write
system.mem_ctrls.numRdRetry                         0                       # Number of times read queue was full causing retry
system.mem_ctrls.numReadWriteTurnArounds            0                       # Number of turnarounds from READ to WRITE
system.mem_ctrls.numStayReadState                   3                       # Number of times bus staying in READ state
system.mem_ctrls.numStayWriteState                  0                       # Number of times bus staying in WRITE state
system.mem_ctrls.numWrRetry                         0                       # Number of times write queue was full causing retry
system.mem_ctrls.numWriteReadTurnArounds            0                       # Number of turnarounds from WRITE to READ
system.mem_ctrls.pageHitRate                      nan                       # Row buffer hit rate, read and write combined
system.mem_ctrls.peakBW                       4266.00                       # Theoretical peak bandwidth in MiByte/s
system.mem_ctrls.perBankRdBursts::0                 0                       # Per bank write bursts
system.mem_ctrls.perBankRdBursts::1                 0                       # Per bank write bursts
system.mem_ctrls.perBankRdBursts::2                 0                       # Per bank write bursts
system.mem_ctrls.perBankRdBursts::3                 0                       # Per bank write bursts
system.mem_ctrls.perBankRdBursts::4                 0                       # Per bank write bursts
system.mem_ctrls.perBankRdBursts::5                 0                       # Per bank write bursts
system.mem_ctrls.perBankRdBursts::6                 0                       # Per bank write bursts
system.mem_ctrls.perBankRdBursts::7                 0                       # Per bank write bursts
system.mem_ctrls.perBankWrBursts::0                 0                       # Per bank write bursts
system.mem_ctrls.perBankWrBursts::1                 0                       # Per bank write bursts
system.mem_ctrls.perBankWrBursts::2                 0                       # Per bank write bursts
system.mem_ctrls.perBankWrBursts::3                 0                       # Per bank write bursts
system.mem_ctrls.perBankWrBursts::4                 0                       # Per bank write bursts
system.mem_ctrls.perBankWrBursts::5                 0                       # Per bank write bursts
system.mem_ctrls.perBankWrBursts::6                 0                       # Per bank write bursts
system.mem_ctrls.perBankWrBursts::7                 0                       # Per bank write bursts
system.mem_ctrls.priorityMaxLatency      0.000000000000                       # per QoS priority maximum request to response latency (s)
system.mem_ctrls.priorityMinLatency      0.000000000000                       # per QoS priority minimum request to response latency (s)
system.mem_ctrls.pwrStateResidencyTicks::UNDEFINED     12962670                       # Cumulative time (in ticks) in various power states
system.mem_ctrls.rdQLenPdf::0                       0                       # What read queue length does an incoming req see
system.mem_ctrls.rdQLenPdf::1                       0                       # What read queue length does an incoming req see
system.mem_ctrls.rdQLenPdf::2                       0                       # What read queue length does an incoming req see
system.mem_ctrls.rdQLenPdf::3                       0                       # What read queue length does an incoming req see
system.mem_ctrls.rdQLenPdf::4                       0                       # What read queue length does an incoming req see
system.mem_ctrls.rdQLenPdf::5                       0                       # What read queue length does an incoming req see
system.mem_ctrls.rdQLenPdf::6                       0                       # What read queue length does an incoming req see
system.mem_ctrls.rdQLenPdf::7                       0                       # What read queue length does an incoming req see
system.mem_ctrls.rdQLenPdf::8                       0                       # What read queue length does an incoming req see
system.mem_ctrls.rdQLenPdf::9                       0                       # What read queue length does an incoming req see
system.mem_ctrls.rdQLenPdf::10                      0                       # What read queue length does an incoming req see
system.mem_ctrls.rdQLenPdf::11                      0                       # What read queue length does an incoming req see
system.mem_ctrls.rdQLenPdf::12                      0                       # What read queue length does an incoming req see
system.mem_ctrls.rdQLenPdf::13                      0                       # What read queue length does an incoming req see
system.mem_ctrls.rdQLenPdf::14                      0                       # What read queue length does an incoming req see
system.mem_ctrls.rdQLenPdf::15                      0                       # What read queue length does an incoming req see
system.mem_ctrls.rdQLenPdf::16                      0                       # What read queue length does an incoming req see
system.mem_ctrls.rdQLenPdf::17                      0                       # What read queue length does an incoming req see
system.mem_ctrls.rdQLenPdf::18                      0                       # What read queue length does an incoming req see
system.mem_ctrls.rdQLenPdf::19                      0                       # What read queue length does an incoming req see
system.mem_ctrls.rdQLenPdf::20                      0                       # What read queue length does an incoming req see
system.mem_ctrls.rdQLenPdf::21                      0                       # What read queue length does an incoming req see
system.mem_ctrls.rdQLenPdf::22                      0                       # What read queue length does an incoming req see
system.mem_ctrls.rdQLenPdf::23                      0                       # What read queue length does an incoming req see
[...]
system.mem_ctrls.wrQLenPdf::19                      0                       # What write queue length does an incoming req see
system.mem_ctrls.wrQLenPdf::20                      0                       # What write queue length does an incoming req see
system.mem_ctrls.wrQLenPdf::21                      0                       # What write queue length does an incoming req see
system.mem_ctrls.wrQLenPdf::22                      0                       # What write queue length does an incoming req see
system.mem_ctrls.wrQLenPdf::23                      0                       # What write queue length does an incoming req see
system.mem_ctrls.wrQLenPdf::24                      0                       # What write queue length does an incoming req see
system.mem_ctrls.wrQLenPdf::25                      0                       # What write queue length does an incoming req see
system.mem_ctrls.wrQLenPdf::26                      0                       # What write queue length does an incoming req see
system.mem_ctrls.wrQLenPdf::27                      0                       # What write queue length does an incoming req see
system.mem_ctrls.wrQLenPdf::28                      0                       # What write queue length does an incoming req see
system.mem_ctrls.wrQLenPdf::29                      0                       # What write queue length does an incoming req see
system.mem_ctrls.wrQLenPdf::30                      0                       # What write queue length does an incoming req see
system.mem_ctrls.wrQLenPdf::31                      0                       # What write queue length does an incoming req see
system.mem_ctrls.wrQLenPdf::32                      0                       # What write queue length does an incoming req see
system.mem_ctrls.wrQLenPdf::33                      0                       # What write queue length does an incoming req see
system.mem_ctrls.wrQLenPdf::34                      0                       # What write queue length does an incoming req see
system.mem_ctrls.wrQLenPdf::35                      0                       # What write queue length does an incoming req see
system.mem_ctrls.wrQLenPdf::36                      0                       # What write queue length does an incoming req see
system.mem_ctrls.wrQLenPdf::37                      0                       # What write queue length does an incoming req see
system.mem_ctrls.wrQLenPdf::38                      0                       # What write queue length does an incoming req see
system.mem_ctrls.wrQLenPdf::39                      0                       # What write queue length does an incoming req see
system.mem_ctrls.wrQLenPdf::40                      0                       # What write queue length does an incoming req see
system.mem_ctrls.wrQLenPdf::41                      0                       # What write queue length does an incoming req see
system.mem_ctrls.wrQLenPdf::42                      0                       # What write queue length does an incoming req see
system.mem_ctrls.wrQLenPdf::43                      0                       # What write queue length does an incoming req see
system.mem_ctrls.wrQLenPdf::44                      0                       # What write queue length does an incoming req see
system.mem_ctrls.wrQLenPdf::45                      0                       # What write queue length does an incoming req see
system.mem_ctrls.wrQLenPdf::46                      0                       # What write queue length does an incoming req see
system.mem_ctrls.wrQLenPdf::47                      0                       # What write queue length does an incoming req see
system.mem_ctrls.wrQLenPdf::48                      0                       # What write queue length does an incoming req see
system.mem_ctrls.wrQLenPdf::49                      0                       # What write queue length does an incoming req see
system.mem_ctrls.wrQLenPdf::50                      0                       # What write queue length does an incoming req see
system.mem_ctrls.wrQLenPdf::51                      0                       # What write queue length does an incoming req see
system.mem_ctrls.wrQLenPdf::52                      0                       # What write queue length does an incoming req see
system.mem_ctrls.wrQLenPdf::53                      0                       # What write queue length does an incoming req see
system.mem_ctrls.wrQLenPdf::54                      0                       # What write queue length does an incoming req see
system.mem_ctrls.wrQLenPdf::55                      0                       # What write queue length does an incoming req see
system.mem_ctrls.wrQLenPdf::56                      0                       # What write queue length does an incoming req see
system.mem_ctrls.wrQLenPdf::57                      0                       # What write queue length does an incoming req see
system.mem_ctrls.wrQLenPdf::58                      0                       # What write queue length does an incoming req see
system.mem_ctrls.wrQLenPdf::59                      0                       # What write queue length does an incoming req see
system.mem_ctrls.wrQLenPdf::60                      0                       # What write queue length does an incoming req see
system.mem_ctrls.wrQLenPdf::61                      0                       # What write queue length does an incoming req see
system.mem_ctrls.wrQLenPdf::62                      0                       # What write queue length does an incoming req see
system.mem_ctrls.wrQLenPdf::63                      0                       # What write queue length does an incoming req see
system.mem_ctrls.writeBursts                        0                       # Number of DRAM write bursts, including those merged in the write queue
system.mem_ctrls.writePktSize::0                    0                       # Write request sizes (log2)
system.mem_ctrls.writePktSize::1                    0                       # Write request sizes (log2)
system.mem_ctrls.writePktSize::2                    0                       # Write request sizes (log2)
system.mem_ctrls.writePktSize::3                    0                       # Write request sizes (log2)
system.mem_ctrls.writePktSize::4                    0                       # Write request sizes (log2)
system.mem_ctrls.writePktSize::5                    0                       # Write request sizes (log2)
system.mem_ctrls.writeReqs                          0                       # Number of write requests accepted
system.mem_ctrls.writeRowHitRate                  nan                       # Row buffer hit rate for writes
system.mem_ctrls.writeRowHits                       0                       # Number of row buffer hits during writes
system.mem_ctrls_0.actBackEnergy         14131.908000                       # Energy for active background per rank (pJ)
system.mem_ctrls_0.actEnergy                        0                       # Energy for activate commands per rank (pJ)
system.mem_ctrls_0.actPowerDownEnergy               0                       # Energy for active power-down per rank (pJ)
system.mem_ctrls_0.averagePower             46.077184                       # Core power per rank (mW)
system.mem_ctrls_0.memoryStateTime::IDLE     12572670                       # Time in different power states
system.mem_ctrls_0.memoryStateTime::REF        390000                       # Time in different power states
system.mem_ctrls_0.memoryStateTime::SREF            0                       # Time in different power states
system.mem_ctrls_0.memoryStateTime::PRE_PDN            0                       # Time in different power states
system.mem_ctrls_0.memoryStateTime::ACT             0                       # Time in different power states
system.mem_ctrls_0.memoryStateTime::ACT_PDN            0                       # Time in different power states
system.mem_ctrls_0.preBackEnergy         497591.740800                       # Energy for precharge background per rank (pJ)
system.mem_ctrls_0.preEnergy                        0                       # Energy for precharge commands per rank (pJ)
system.mem_ctrls_0.prePowerDownEnergy               0                       # Energy for precharge power-down per rank (pJ)
system.mem_ctrls_0.readEnergy                       0                       # Energy for read commands per rank (pJ)
system.mem_ctrls_0.refreshEnergy         83322.540000                       # Energy for refresh commands per rank (pJ)
system.mem_ctrls_0.selfRefreshEnergy                0                       # Energy for self refresh per rank (pJ)
system.mem_ctrls_0.totalEnergy           595046.188800                       # Total energy per rank (pJ)
system.mem_ctrls_0.totalIdleTime                    0                       # Total Idle time Per DRAM Rank
system.mem_ctrls_0.writeEnergy                      0                       # Energy for write commands per rank (pJ)
system.membus.badaddr_responder.pwrStateResidencyTicks::UNDEFINED     12962670                       # Cumulative time (in ticks) in various power states
system.membus.pwrStateResidencyTicks::UNDEFINED     12962670                       # Cumulative time (in ticks) in various power states
system.membus.snoopTraffic                          0                       # Total snoop traffic (bytes)
system.membus.snoop_fanout::samples                 0                       # Request fanout histogram
system.membus.snoop_fanout::mean                  nan                       # Request fanout histogram
system.membus.snoop_fanout::stdev                 nan                       # Request fanout histogram
system.membus.snoop_fanout::underflows              0                       # Request fanout histogram
system.membus.snoop_fanout::0                       0                       # Request fanout histogram
system.membus.snoop_fanout::1                       0                       # Request fanout histogram
system.membus.snoop_fanout::2                       0                       # Request fanout histogram
system.membus.snoop_fanout::overflows               0                       # Request fanout histogram
system.membus.snoop_fanout::min_value               0                       # Request fanout histogram
system.membus.snoop_fanout::max_value               0                       # Request fanout histogram
system.membus.snoop_fanout::total                   0                       # Request fanout histogram
system.membus.snoop_filter.hit_multi_requests            0                       # Number of requests hitting in the snoop filter with multiple (>1) holders of the requested data.
system.membus.snoop_filter.hit_multi_snoops            0                       # Number of snoops hitting in the snoop filter with multiple (>1) holders of the requested data.
system.membus.snoop_filter.hit_single_requests            0                       # Number of requests hitting in the snoop filter with a single holder of the requested data.
system.membus.snoop_filter.hit_single_snoops            0                       # Number of snoops hitting in the snoop filter with a single holder of the requested data.
system.membus.snoop_filter.tot_requests             0                       # Total number of requests made to the snoop filter.
system.membus.snoop_filter.tot_snoops               0                       # Total number of snoops made to the snoop filter.
system.membus.snoops                                0                       # Total snoops (count)
system.pci_ide.pwrStateResidencyTicks::UNDEFINED     12962670                       # Cumulative time (in ticks) in various power states
system.realview.clock24MHz.clock                41667                       # Clock period in ticks
system.realview.clock24MHz.voltage_domain.voltage     3.300000                       # Voltage in Volts
system.realview.dcc.osc_cpu.clock               16667                       # Clock period in ticks
system.realview.dcc.osc_ddr.clock               25000                       # Clock period in ticks
system.realview.dcc.osc_hsbm.clock              25000                       # Clock period in ticks
system.realview.dcc.osc_pxl.clock               42105                       # Clock period in ticks
system.realview.dcc.osc_smb.clock               20000                       # Clock period in ticks
system.realview.dcc.osc_sys.clock               16667                       # Clock period in ticks
system.realview.energy_ctrl.pwrStateResidencyTicks::UNDEFINED     12962670                       # Cumulative time (in ticks) in various power states
system.realview.generic_timer.pwrStateResidencyTicks::UNDEFINED     12962670                       # Cumulative time (in ticks) in various power states
system.realview.gic.pwrStateResidencyTicks::UNDEFINED     12962670                       # Cumulative time (in ticks) in various power states
system.realview.gicv2m.pwrStateResidencyTicks::UNDEFINED     12962670                       # Cumulative time (in ticks) in various power states
system.realview.hdlcd.pwrStateResidencyTicks::UNDEFINED     12962670                       # Cumulative time (in ticks) in various power states
system.realview.kmi0.pwrStateResidencyTicks::UNDEFINED     12962670                       # Cumulative time (in ticks) in various power states
system.realview.kmi1.pwrStateResidencyTicks::UNDEFINED     12962670                       # Cumulative time (in ticks) in various power states
system.realview.mcc.osc_clcd.clock              42105                       # Clock period in ticks
system.realview.mcc.osc_mcc.clock               20000                       # Clock period in ticks
system.realview.mcc.osc_peripheral.clock        41667                       # Clock period in ticks
system.realview.mcc.osc_system_bus.clock        41667                       # Clock period in ticks
system.realview.pci_host.pwrStateResidencyTicks::UNDEFINED     12962670                       # Cumulative time (in ticks) in various power states
system.realview.realview_io.pwrStateResidencyTicks::UNDEFINED     12962670                       # Cumulative time (in ticks) in various power states
system.realview.rtc.pwrStateResidencyTicks::UNDEFINED     12962670                       # Cumulative time (in ticks) in various power states
system.realview.uart.pwrStateResidencyTicks::UNDEFINED     12962670                       # Cumulative time (in ticks) in various power states
system.realview.vgic.pwrStateResidencyTicks::UNDEFINED     12962670                       # Cumulative time (in ticks) in various power states
system.realview.vio0.pwrStateResidencyTicks::UNDEFINED     12962670                       # Cumulative time (in ticks) in various power states
system.realview.vio1.pwrStateResidencyTicks::UNDEFINED     12962670                       # Cumulative time (in ticks) in various power states
system.tol2bus.pkt_count_system.cpu.icache.mem_side::system.l2.cpu_side           18                       # Packet count per connected master and slave (bytes)
system.tol2bus.pkt_count_system.cpu.dcache.mem_side::system.l2.cpu_side           45                       # Packet count per connected master and slave (bytes)
system.tol2bus.pkt_count::total                    63                       # Packet count per connected master and slave (bytes)
system.tol2bus.pkt_size_system.cpu.icache.mem_side::system.l2.cpu_side          384                       # Cumulative packet size per connected master and slave (bytes)
system.tol2bus.pkt_size_system.cpu.dcache.mem_side::system.l2.cpu_side         1728                       # Cumulative packet size per connected master and slave (bytes)
system.tol2bus.pkt_size::total                   2112                       # Cumulative packet size per connected master and slave (bytes)
system.tol2bus.pwrStateResidencyTicks::UNDEFINED     12962670                       # Cumulative time (in ticks) in various power states
system.tol2bus.reqLayer0.occupancy              47124                       # Layer occupancy (ticks)
system.tol2bus.reqLayer0.utilization              0.4                       # Layer utilization (%)
system.tol2bus.respLayer0.occupancy             12852                       # Layer occupancy (ticks)
system.tol2bus.respLayer0.utilization             0.1                       # Layer utilization (%)
system.tol2bus.respLayer1.occupancy             32130                       # Layer occupancy (ticks)
system.tol2bus.respLayer1.utilization             0.2                       # Layer utilization (%)
system.tol2bus.snoopTraffic                         0                       # Total snoop traffic (bytes)
system.tol2bus.snoop_fanout::samples               21                       # Request fanout histogram
system.tol2bus.snoop_fanout::mean            0.047619                       # Request fanout histogram
system.tol2bus.snoop_fanout::stdev           0.218218                       # Request fanout histogram
system.tol2bus.snoop_fanout::underflows             0      0.00%      0.00% # Request fanout histogram
system.tol2bus.snoop_fanout::0                     20     95.24%     95.24% # Request fanout histogram
system.tol2bus.snoop_fanout::1                      1      4.76%    100.00% # Request fanout histogram
system.tol2bus.snoop_fanout::2                      0      0.00%    100.00% # Request fanout histogram
system.tol2bus.snoop_fanout::3                      0      0.00%    100.00% # Request fanout histogram
system.tol2bus.snoop_fanout::4                      0      0.00%    100.00% # Request fanout histogram
system.tol2bus.snoop_fanout::overflows              0      0.00%    100.00% # Request fanout histogram
system.tol2bus.snoop_fanout::min_value              0                       # Request fanout histogram
system.tol2bus.snoop_fanout::max_value              1                       # Request fanout histogram
system.tol2bus.snoop_fanout::total                 21                       # Request fanout histogram
system.tol2bus.snoop_filter.hit_multi_requests            2                       # Number of requests hitting in the snoop filter with multiple (>1) holders of the requested data.
system.tol2bus.snoop_filter.hit_multi_snoops            0                       # Number of snoops hitting in the snoop filter with multiple (>1) holders of the requested data.
system.tol2bus.snoop_filter.hit_single_requests           20                       # Number of requests hitting in the snoop filter with a single holder of the requested data.
system.tol2bus.snoop_filter.hit_single_snoops            0                       # Number of snoops hitting in the snoop filter with a single holder of the requested data.
system.tol2bus.snoop_filter.tot_requests           42                       # Total number of requests made to the snoop filter.
system.tol2bus.snoop_filter.tot_snoops              0                       # Total number of snoops made to the snoop filter.
system.tol2bus.snoops                               0                       # Total snoops (count)
system.tol2bus.trans_dist::ReadResp                15                       # Transaction distribution
system.tol2bus.trans_dist::WritebackDirty           12                       # Transaction distribution
system.tol2bus.trans_dist::CleanEvict               9                       # Transaction distribution
system.tol2bus.trans_dist::ReadExReq                6                       # Transaction distribution
system.tol2bus.trans_dist::ReadExResp               6                       # Transaction distribution
system.tol2bus.trans_dist::ReadSharedReq           15                       # Transaction distribution
system.voltage_domain.voltage                       1                       # Voltage in Volts

---------- End Simulation Statistics   ----------